*SPEF "ieee 1481-1999"
*DESIGN "digital_unison"
*DATE "11:11:11 Fri 11 11, 1111"
*VENDOR "OpenRCX"
*PROGRAM "Parallel Extraction"
*VERSION "1.0"
*DESIGN_FLOW "NAME_SCOPE LOCAL" "PIN_CAP NONE"
*DIVIDER /
*DELIMITER :
*BUS_DELIMITER []
*T_UNIT 1 NS
*C_UNIT 1 PF
*R_UNIT 1 OHM
*L_UNIT 1 HENRY

*NAME_MAP
*1 cclk_I[0]
*2 cclk_I[1]
*3 cclk_I[2]
*4 cclk_I[3]
*5 cclk_Q[0]
*6 cclk_Q[1]
*7 cclk_Q[2]
*8 cclk_Q[3]
*9 clk_master
*10 clkdiv2_I[0]
*11 clkdiv2_I[1]
*12 clkdiv2_I[2]
*13 clkdiv2_I[3]
*14 clkdiv2_Q[0]
*15 clkdiv2_Q[1]
*16 clkdiv2_Q[2]
*17 clkdiv2_Q[3]
*18 comp_high_I[0]
*19 comp_high_I[1]
*20 comp_high_I[2]
*21 comp_high_I[3]
*22 comp_high_Q[0]
*23 comp_high_Q[1]
*24 comp_high_Q[2]
*25 comp_high_Q[3]
*26 cos_out[0]
*27 cos_out[1]
*28 cos_out[2]
*29 cos_out[3]
*30 fb1_I[0]
*31 fb1_I[1]
*32 fb1_I[2]
*33 fb1_I[3]
*34 fb1_Q[0]
*35 fb1_Q[1]
*36 fb1_Q[2]
*37 fb1_Q[3]
*38 phi1b_dig_I[0]
*39 phi1b_dig_I[1]
*40 phi1b_dig_I[2]
*41 phi1b_dig_I[3]
*42 phi1b_dig_Q[0]
*43 phi1b_dig_Q[1]
*44 phi1b_dig_Q[2]
*45 phi1b_dig_Q[3]
*46 read_out_I[0]
*47 read_out_I[1]
*48 read_out_Q[0]
*49 read_out_Q[1]
*50 rstb
*51 sin_out[0]
*52 sin_out[1]
*53 sin_out[2]
*54 sin_out[3]
*55 ud_en
*58 _0000_
*59 _0001_
*60 _0002_
*61 _0003_
*62 _0004_
*63 _0005_
*64 _0006_
*65 _0007_
*66 _0010_
*67 _0012_
*68 _0015_
*69 _0018_
*70 _0021_
*71 _0024_
*72 _0027_
*73 _0031_
*74 _0034_
*75 _0037_
*76 _0054_
*77 _0057_
*78 _0060_
*79 _0063_
*80 _0064_
*81 _0065_
*82 _0066_
*83 _0067_
*84 _0068_
*85 _0069_
*86 _0070_
*87 _0071_
*88 _0072_
*89 _0073_
*90 _0074_
*91 _0075_
*92 _0076_
*93 _0077_
*94 _0078_
*95 _0079_
*96 _0080_
*97 _0081_
*98 _0082_
*99 _0083_
*100 _0084_
*101 _0085_
*102 _0086_
*103 _0087_
*104 _0088_
*105 _0089_
*106 _0090_
*107 _0091_
*108 _0092_
*109 _0093_
*110 _0094_
*111 _0095_
*112 _0096_
*113 _0097_
*114 _0098_
*115 _0099_
*116 _0100_
*117 _0101_
*118 _0102_
*119 _0103_
*120 _0104_
*121 _0105_
*122 _0106_
*123 _0107_
*124 _0108_
*125 _0109_
*126 _0110_
*127 _0111_
*128 _0112_
*129 _0113_
*130 _0114_
*131 _0115_
*132 _0116_
*133 _0117_
*134 _0118_
*135 _0119_
*136 _0120_
*137 _0121_
*138 _0122_
*139 _0123_
*140 _0124_
*141 _0129_
*142 _0132_
*143 _0135_
*144 _0138_
*145 _0139_
*146 _0140_
*147 _0141_
*148 _0142_
*149 _0143_
*150 _0144_
*151 _0145_
*152 _0146_
*153 _0147_
*154 _0148_
*155 _0149_
*156 _0150_
*157 _0151_
*158 _0152_
*159 _0153_
*160 _0154_
*161 _0155_
*162 _0156_
*163 _0157_
*164 _0158_
*165 _0159_
*166 _0160_
*167 _0161_
*168 _0162_
*169 _0163_
*170 _0164_
*171 _0165_
*172 _0166_
*173 _0167_
*174 _0168_
*175 _0169_
*176 _0170_
*177 _0171_
*178 _0172_
*179 _0173_
*180 _0174_
*181 _0175_
*182 _0176_
*183 _0177_
*184 _0178_
*185 _0179_
*186 _0180_
*187 _0181_
*188 _0182_
*189 _0183_
*190 _0184_
*191 _0185_
*192 _0186_
*193 _0187_
*194 _0188_
*195 _0189_
*196 _0190_
*197 _0191_
*198 _0192_
*199 _0193_
*200 _0194_
*201 _0195_
*202 _0196_
*203 _0197_
*204 _0198_
*205 _0199_
*206 _0204_
*207 _0207_
*208 _0210_
*209 _0213_
*210 _0214_
*211 _0215_
*212 _0216_
*213 _0217_
*214 _0218_
*215 _0219_
*216 _0220_
*217 _0221_
*218 _0222_
*219 _0223_
*220 _0224_
*221 _0225_
*222 _0226_
*223 _0227_
*224 _0228_
*225 _0229_
*226 _0230_
*227 _0231_
*228 _0232_
*229 _0233_
*230 _0234_
*231 _0235_
*232 _0236_
*233 _0237_
*234 _0238_
*235 _0239_
*236 _0240_
*237 _0241_
*238 _0242_
*239 _0243_
*240 _0244_
*241 _0245_
*242 _0246_
*243 _0247_
*244 _0248_
*245 _0249_
*246 _0250_
*247 _0251_
*248 _0252_
*249 _0253_
*250 _0254_
*251 _0255_
*252 _0256_
*253 _0257_
*254 _0258_
*255 _0259_
*256 _0260_
*257 _0261_
*258 _0262_
*259 _0263_
*260 _0264_
*261 _0265_
*262 _0266_
*263 _0267_
*264 _0268_
*265 _0269_
*266 _0270_
*267 _0271_
*268 _0272_
*269 _0273_
*270 _0274_
*271 _0277_
*272 _0278_
*273 _0279_
*274 _0280_
*275 _0283_
*276 _0285_
*277 _0288_
*278 _0291_
*279 _0294_
*280 _0297_
*281 _0300_
*282 _0304_
*283 _0307_
*284 _0310_
*285 _0311_
*286 _0312_
*287 _0313_
*288 _0314_
*289 _0315_
*290 _0316_
*291 _0317_
*292 _0318_
*293 _0319_
*294 _0320_
*295 _0321_
*296 _0322_
*297 _0323_
*298 _0324_
*299 _0325_
*300 _0326_
*301 _0327_
*302 _0328_
*303 _0329_
*304 _0330_
*305 _0331_
*306 _0332_
*307 _0333_
*308 _0334_
*309 _0335_
*310 _0336_
*311 _0337_
*312 _0338_
*313 _0339_
*314 _0340_
*315 _0341_
*316 _0342_
*317 _0343_
*318 _0344_
*319 _0345_
*320 _0346_
*321 _0347_
*322 _0348_
*323 _0349_
*324 _0350_
*325 _0351_
*326 _0352_
*327 _0353_
*328 _0354_
*329 _0355_
*330 _0356_
*331 _0357_
*332 _0358_
*333 _0359_
*334 _0360_
*335 _0361_
*336 _0362_
*337 _0363_
*338 _0364_
*339 _0365_
*340 _0366_
*341 _0367_
*342 _0368_
*343 _0369_
*344 _0370_
*345 _0371_
*346 _0372_
*347 _0373_
*348 _0374_
*349 _0375_
*350 _0376_
*351 _0377_
*352 _0378_
*353 _0379_
*354 _0380_
*355 _0381_
*356 _0382_
*357 _0383_
*358 _0384_
*359 _0385_
*360 _0386_
*361 _0387_
*362 _0388_
*363 _0389_
*364 _0390_
*365 _0391_
*366 _0392_
*367 _0393_
*368 _0394_
*369 _0395_
*370 _0396_
*371 _0397_
*372 _0398_
*373 _0399_
*374 _0400_
*375 _0401_
*376 _0402_
*377 _0403_
*378 _0404_
*379 _0405_
*380 _0406_
*381 _0407_
*382 _0408_
*383 _0409_
*384 _0410_
*385 _0411_
*386 _0412_
*387 _0413_
*388 _0414_
*389 _0415_
*390 _0416_
*391 _0417_
*392 _0418_
*393 _0419_
*394 _0420_
*395 _0421_
*396 _0422_
*397 _0423_
*398 _0424_
*399 _0425_
*400 _0426_
*401 _0427_
*402 _0428_
*403 _0429_
*404 _0430_
*405 _0431_
*406 _0432_
*407 _0433_
*408 _0434_
*409 _0435_
*410 _0436_
*411 _0437_
*412 _0438_
*413 _0439_
*414 _0440_
*415 _0441_
*416 _0442_
*417 _0443_
*418 _0444_
*419 _0445_
*420 _0446_
*421 _0447_
*422 _0448_
*423 _0449_
*424 _0450_
*425 _0451_
*426 _0452_
*427 _0453_
*428 _0454_
*429 _0455_
*430 _0456_
*431 _0457_
*432 _0458_
*433 _0459_
*434 _0460_
*435 _0461_
*436 _0462_
*437 _0463_
*438 _0464_
*439 _0465_
*440 _0466_
*441 _0467_
*442 _0468_
*443 _0469_
*444 _0470_
*445 _0471_
*446 _0472_
*447 _0473_
*448 _0474_
*449 _0475_
*450 _0476_
*451 _0477_
*452 _0478_
*453 _0479_
*454 _0480_
*455 _0481_
*456 _0482_
*457 _0483_
*458 _0484_
*459 _0485_
*460 _0486_
*461 _0487_
*462 _0488_
*463 _0489_
*464 _0490_
*465 _0491_
*466 _0492_
*467 _0493_
*468 _0494_
*469 _0495_
*470 _0496_
*471 _0497_
*472 _0498_
*473 _0499_
*474 _0500_
*475 _0501_
*476 _0502_
*477 _0503_
*478 _0504_
*479 _0505_
*480 _0506_
*481 _0507_
*482 _0508_
*483 _0509_
*484 _0510_
*485 _0511_
*486 _0512_
*487 _0513_
*488 _0514_
*489 _0515_
*490 _0516_
*491 _0517_
*492 _0518_
*493 _0519_
*494 _0520_
*495 _0521_
*496 _0522_
*497 _0523_
*498 _0524_
*499 _0525_
*500 _0526_
*501 _0527_
*502 _0528_
*503 _0529_
*504 _0530_
*505 _0531_
*506 _0532_
*507 _0533_
*508 _0534_
*509 _0535_
*510 _0536_
*511 _0537_
*512 _0538_
*513 _0539_
*514 _0540_
*515 _0541_
*516 _0542_
*517 _0543_
*518 _0544_
*519 _0545_
*520 _0546_
*521 _0547_
*522 _0548_
*523 _0549_
*524 _0550_
*525 _0551_
*526 _0552_
*527 _0553_
*528 _0554_
*529 _0555_
*530 _0556_
*531 _0557_
*532 _0558_
*533 _0559_
*534 _0560_
*535 _0561_
*536 _0562_
*537 _0563_
*538 _0564_
*539 _0565_
*540 _0566_
*541 _0567_
*542 _0568_
*543 _0569_
*544 _0570_
*545 _0571_
*546 _0572_
*547 _0573_
*548 _0574_
*549 _0575_
*550 _0576_
*551 _0577_
*552 _0578_
*553 _0579_
*554 _0580_
*555 _0581_
*556 _0582_
*557 _0583_
*558 _0584_
*559 _0585_
*560 _0586_
*561 _0587_
*562 _0588_
*563 _0589_
*564 _0590_
*565 _0591_
*566 _0592_
*567 _0593_
*568 _0594_
*569 _0595_
*570 _0596_
*571 _0597_
*572 _0598_
*573 _0599_
*574 _0600_
*575 _0601_
*576 _0602_
*577 _0603_
*578 _0604_
*579 _0605_
*580 _0606_
*581 _0607_
*582 _0608_
*583 _0609_
*584 _0610_
*585 _0611_
*586 _0612_
*587 _0613_
*588 _0614_
*589 _0615_
*590 _0616_
*591 _0617_
*592 _0618_
*593 _0619_
*594 _0620_
*595 _0621_
*596 _0622_
*597 _0623_
*598 _0624_
*599 _0625_
*600 _0626_
*601 _0627_
*602 _0628_
*603 _0629_
*604 _0630_
*605 _0631_
*606 _0632_
*607 _0633_
*608 _0634_
*609 _0635_
*610 _0636_
*611 _0637_
*612 _0638_
*613 _0639_
*614 _0640_
*615 _0641_
*616 _0642_
*617 _0643_
*618 _0644_
*619 _0645_
*620 _0646_
*621 _0647_
*622 _0648_
*623 _0649_
*624 _0650_
*625 _0651_
*626 _0652_
*627 _0653_
*628 _0654_
*629 _0655_
*630 _0656_
*631 _0657_
*632 _0658_
*633 _0659_
*634 _0660_
*635 _0661_
*636 _0662_
*637 _0663_
*638 _0664_
*639 _0665_
*640 _0666_
*641 _0667_
*642 _0668_
*643 _0669_
*644 _0670_
*645 _0671_
*646 _0672_
*647 _0673_
*648 _0674_
*649 _0675_
*650 _0676_
*651 _0677_
*652 _0678_
*653 _0679_
*654 _0680_
*655 _0681_
*656 _0682_
*657 _0683_
*658 _0684_
*659 _0685_
*660 _0686_
*661 _0687_
*662 _0688_
*663 _0689_
*664 _0690_
*665 _0691_
*666 _0692_
*667 _0693_
*668 _0694_
*669 _0695_
*670 _0696_
*671 _0697_
*672 _0698_
*673 _0699_
*674 _0700_
*675 _0701_
*676 _0702_
*677 _0703_
*678 _0704_
*679 _0705_
*680 _0706_
*681 _0707_
*682 _0708_
*683 _0709_
*684 _0710_
*685 _0711_
*686 _0712_
*687 _0713_
*688 _0714_
*689 _0715_
*690 _0716_
*691 _0717_
*692 _0718_
*693 _0719_
*694 _0720_
*695 _0721_
*696 _0722_
*697 _0723_
*698 _0724_
*699 _0725_
*700 _0726_
*701 _0727_
*702 _0728_
*703 _0729_
*704 _0730_
*705 _0731_
*706 _0732_
*707 _0733_
*708 _0734_
*709 _0735_
*710 _0736_
*711 _0737_
*712 _0738_
*713 _0739_
*714 _0740_
*715 _0741_
*716 _0742_
*717 _0743_
*718 _0744_
*719 _0745_
*720 _0746_
*721 _0747_
*722 _0748_
*723 _0749_
*724 _0750_
*725 _0751_
*726 _0752_
*727 _0753_
*728 _0754_
*729 _0755_
*730 _0756_
*731 _0757_
*732 _0758_
*733 _0759_
*734 _0760_
*735 _0761_
*736 _0762_
*737 _0763_
*738 _0764_
*739 _0765_
*740 _0766_
*741 _0767_
*742 _0768_
*743 _0769_
*744 _0770_
*745 _0771_
*746 _0772_
*747 _0773_
*748 _0774_
*749 _0775_
*750 _0776_
*751 _0777_
*752 _0778_
*753 _0779_
*754 _0780_
*755 _0781_
*756 _0782_
*757 _0783_
*758 _0784_
*759 _0785_
*760 _0786_
*761 _0787_
*762 _0788_
*763 _0789_
*764 _0790_
*765 _0791_
*766 _0792_
*767 _0793_
*768 _0794_
*769 _0795_
*770 _0796_
*771 _0797_
*772 _0798_
*773 _0799_
*774 _0800_
*775 _0801_
*776 _0802_
*777 _0803_
*778 _0804_
*779 _0805_
*780 _0806_
*781 _0807_
*782 _0808_
*783 _0809_
*784 _0810_
*785 _0811_
*786 _0812_
*787 _0813_
*788 _0814_
*789 _0815_
*790 _0816_
*791 _0817_
*792 _0818_
*793 _0819_
*794 _0820_
*795 _0821_
*796 _0822_
*797 _0823_
*798 _0824_
*799 _0825_
*800 _0826_
*801 _0827_
*802 _0828_
*803 _0829_
*804 _0830_
*805 _0831_
*806 _0832_
*807 _0833_
*808 _0834_
*809 clknet_0__0311_
*810 clknet_0__0312_
*811 clknet_0__0315_
*812 clknet_0__0320_
*813 clknet_0__0321_
*814 clknet_0__0825_
*815 clknet_0__0826_
*816 clknet_0__0829_
*817 clknet_0__0832_
*818 clknet_0_clk_master
*819 clknet_0_w0\.cclk_I
*820 clknet_1_0_0_clk_master
*821 clknet_1_0_1_clk_master
*822 clknet_1_0__leaf__0311_
*823 clknet_1_0__leaf__0312_
*824 clknet_1_0__leaf__0315_
*825 clknet_1_0__leaf__0320_
*826 clknet_1_0__leaf__0321_
*827 clknet_1_0__leaf__0825_
*828 clknet_1_0__leaf__0826_
*829 clknet_1_0__leaf__0829_
*830 clknet_1_0__leaf__0832_
*831 clknet_1_1_0_clk_master
*832 clknet_1_1_1_clk_master
*833 clknet_1_1__leaf__0311_
*834 clknet_1_1__leaf__0312_
*835 clknet_1_1__leaf__0315_
*836 clknet_1_1__leaf__0320_
*837 clknet_1_1__leaf__0321_
*838 clknet_1_1__leaf__0825_
*839 clknet_1_1__leaf__0826_
*840 clknet_1_1__leaf__0829_
*841 clknet_1_1__leaf__0832_
*842 clknet_2_0_0_clk_master
*843 clknet_2_0__leaf_w0\.cclk_I
*844 clknet_2_1_0_clk_master
*845 clknet_2_1__leaf_w0\.cclk_I
*846 clknet_2_2_0_clk_master
*847 clknet_2_2__leaf_w0\.cclk_I
*848 clknet_2_3_0_clk_master
*849 clknet_2_3__leaf_w0\.cclk_I
*850 net1
*851 net10
*852 net100
*853 net101
*854 net102
*855 net103
*856 net104
*857 net105
*858 net106
*859 net107
*860 net108
*861 net109
*862 net11
*863 net110
*864 net111
*865 net112
*866 net113
*867 net114
*868 net115
*869 net116
*870 net117
*871 net118
*872 net119
*873 net12
*874 net120
*875 net121
*876 net122
*877 net123
*878 net124
*879 net125
*880 net126
*881 net127
*882 net128
*883 net129
*884 net13
*885 net130
*886 net131
*887 net132
*888 net133
*889 net134
*890 net135
*891 net136
*892 net137
*893 net138
*894 net139
*895 net14
*896 net140
*897 net141
*898 net142
*899 net143
*900 net144
*901 net145
*902 net146
*903 net147
*904 net148
*905 net149
*906 net15
*907 net150
*908 net151
*909 net152
*910 net153
*911 net154
*912 net155
*913 net156
*914 net157
*915 net158
*916 net159
*917 net16
*918 net160
*919 net161
*920 net162
*921 net163
*922 net164
*923 net165
*924 net166
*925 net167
*926 net168
*927 net169
*928 net17
*929 net170
*930 net171
*931 net172
*932 net173
*933 net174
*934 net175
*935 net176
*936 net177
*937 net178
*938 net179
*939 net18
*940 net180
*941 net181
*942 net182
*943 net183
*944 net184
*945 net185
*946 net186
*947 net187
*948 net188
*949 net189
*950 net19
*951 net190
*952 net191
*953 net192
*954 net193
*955 net194
*956 net195
*957 net196
*958 net197
*959 net198
*960 net199
*961 net2
*962 net20
*963 net200
*964 net201
*965 net202
*966 net203
*967 net204
*968 net205
*969 net206
*970 net207
*971 net208
*972 net209
*973 net21
*974 net210
*975 net211
*976 net212
*977 net213
*978 net22
*979 net23
*980 net24
*981 net25
*982 net26
*983 net27
*984 net28
*985 net29
*986 net3
*987 net30
*988 net31
*989 net32
*990 net33
*991 net34
*992 net35
*993 net36
*994 net37
*995 net38
*996 net39
*997 net4
*998 net40
*999 net41
*1000 net42
*1001 net43
*1002 net44
*1003 net45
*1004 net46
*1005 net47
*1006 net48
*1007 net49
*1008 net5
*1009 net50
*1010 net51
*1011 net52
*1012 net53
*1013 net54
*1014 net55
*1015 net56
*1016 net57
*1017 net58
*1018 net59
*1019 net6
*1020 net60
*1021 net61
*1022 net62
*1023 net63
*1024 net64
*1025 net65
*1026 net66
*1027 net67
*1028 net68
*1029 net69
*1030 net7
*1031 net70
*1032 net71
*1033 net72
*1034 net73
*1035 net74
*1036 net75
*1037 net76
*1038 net77
*1039 net78
*1040 net79
*1041 net8
*1042 net80
*1043 net81
*1044 net82
*1045 net83
*1046 net84
*1047 net85
*1048 net86
*1049 net87
*1050 net88
*1051 net89
*1052 net9
*1053 net90
*1054 net91
*1055 net92
*1056 net93
*1057 net94
*1058 net95
*1059 net96
*1060 net97
*1061 net98
*1062 net99
*1063 w0\.POL_EVE_I\.comp_out
*1064 w0\.POL_EVE_I\.dff1\.q
*1065 w0\.POL_EVE_I\.dff2\.q
*1066 w0\.POL_EVE_I\.dff3\.q
*1067 w0\.POL_EVE_I\.eve
*1068 w0\.POL_EVE_I\.polxevent
*1069 w0\.POL_EVE_Q\.comp_out
*1070 w0\.POL_EVE_Q\.dff1\.q
*1071 w0\.POL_EVE_Q\.dff2\.q
*1072 w0\.POL_EVE_Q\.dff3\.q
*1073 w0\.POL_EVE_Q\.eve
*1074 w0\.POL_EVE_Q\.polxevent
*1075 w0\.bank1\.cos_out
*1076 w0\.bank1\.sin_out
*1077 w0\.cclk_I
*1078 w0\.div2\.dff\.d
*1079 w0\.div2\.dff\.q
*1080 w0\.fb1_I
*1081 w0\.fb1_Q
*1082 w0\.fb_block_I\.gs_f\.fb_gray_selector_loop\[0\]\.dl\.d
*1083 w0\.fb_block_I\.gs_f\.fb_gray_selector_loop\[0\]\.eff3\.d1
*1084 w0\.fb_block_I\.gs_f\.fb_gray_selector_loop\[0\]\.eff3\.d2
*1085 w0\.fb_block_I\.gs_f\.fb_gray_selector_loop\[0\]\.eff3\.dff\.q
*1086 w0\.fb_block_I\.gs_f\.fb_gray_selector_loop\[0\]\.eff3\.dff_n\.q
*1087 w0\.fb_block_I\.gs_f\.fb_gray_selector_loop\[0\]\.t_buf\.ctrlb
*1088 w0\.fb_block_I\.gs_f\.fb_gray_selector_loop\[0\]\.t_buf\.in
*1089 w0\.fb_block_I\.gs_f\.fb_gray_selector_loop\[1\]\.eff3\.d1
*1090 w0\.fb_block_I\.gs_f\.fb_gray_selector_loop\[1\]\.eff3\.d2
*1091 w0\.fb_block_I\.gs_f\.fb_gray_selector_loop\[1\]\.eff3\.dff\.q
*1092 w0\.fb_block_I\.gs_f\.fb_gray_selector_loop\[1\]\.eff3\.dff_n\.q
*1093 w0\.fb_block_I\.gs_f\.fb_gray_selector_loop\[1\]\.t_buf\.ctrlb
*1094 w0\.fb_block_I\.gs_f\.fb_gray_selector_loop\[1\]\.t_buf\.in
*1095 w0\.fb_block_I\.gs_f\.fb_gray_selector_loop\[2\]\.eff3\.d1
*1096 w0\.fb_block_I\.gs_f\.fb_gray_selector_loop\[2\]\.eff3\.d2
*1097 w0\.fb_block_I\.gs_f\.fb_gray_selector_loop\[2\]\.eff3\.dff\.q
*1098 w0\.fb_block_I\.gs_f\.fb_gray_selector_loop\[2\]\.eff3\.dff_n\.q
*1099 w0\.fb_block_I\.gs_f\.fb_gray_selector_loop\[2\]\.t_buf\.ctrlb
*1100 w0\.fb_block_I\.gs_f\.fb_gray_selector_loop\[2\]\.t_buf\.in
*1101 w0\.fb_block_I\.gs_f\.fb_gray_selector_loop\[3\]\.eff3\.d1
*1102 w0\.fb_block_I\.gs_f\.fb_gray_selector_loop\[3\]\.eff3\.d2
*1103 w0\.fb_block_I\.gs_f\.fb_gray_selector_loop\[3\]\.eff3\.dff\.q
*1104 w0\.fb_block_I\.gs_f\.fb_gray_selector_loop\[3\]\.eff3\.dff_n\.q
*1105 w0\.fb_block_I\.gs_f\.fb_gray_selector_loop\[3\]\.t_buf\.ctrlb
*1106 w0\.fb_block_I\.gs_f\.fb_gray_selector_loop\[3\]\.t_buf\.in
*1107 w0\.fb_block_I\.gs_f\.fb_gray_selector_loop\[4\]\.eff3\.d1
*1108 w0\.fb_block_I\.gs_f\.fb_gray_selector_loop\[4\]\.eff3\.d2
*1109 w0\.fb_block_I\.gs_f\.fb_gray_selector_loop\[4\]\.eff3\.dff\.q
*1110 w0\.fb_block_I\.gs_f\.fb_gray_selector_loop\[4\]\.eff3\.dff_n\.q
*1111 w0\.fb_block_I\.gs_f\.fb_gray_selector_loop\[4\]\.t_buf\.ctrlb
*1112 w0\.fb_block_I\.gs_f\.fb_gray_selector_loop\[4\]\.t_buf\.in
*1113 w0\.fb_block_I\.gs_f\.fb_gray_selector_loop\[5\]\.eff3\.d1
*1114 w0\.fb_block_I\.gs_f\.fb_gray_selector_loop\[5\]\.eff3\.d2
*1115 w0\.fb_block_I\.gs_f\.fb_gray_selector_loop\[5\]\.eff3\.dff\.q
*1116 w0\.fb_block_I\.gs_f\.fb_gray_selector_loop\[5\]\.eff3\.dff_n\.q
*1117 w0\.fb_block_I\.gs_f\.fb_gray_selector_loop\[5\]\.t_buf\.ctrlb
*1118 w0\.fb_block_I\.gs_f\.fb_gray_selector_loop\[5\]\.t_buf\.in
*1119 w0\.fb_block_I\.gs_f\.fb_gray_selector_loop\[6\]\.eff3\.d1
*1120 w0\.fb_block_I\.gs_f\.fb_gray_selector_loop\[6\]\.eff3\.d2
*1121 w0\.fb_block_I\.gs_f\.fb_gray_selector_loop\[6\]\.eff3\.dff\.q
*1122 w0\.fb_block_I\.gs_f\.fb_gray_selector_loop\[6\]\.eff3\.dff_n\.q
*1123 w0\.fb_block_I\.gs_f\.fb_gray_selector_loop\[6\]\.t_buf\.ctrlb
*1124 w0\.fb_block_I\.gs_f\.fb_gray_selector_loop\[6\]\.t_buf\.in
*1125 w0\.fb_block_I\.gs_f\.fb_gray_selector_loop\[7\]\.eff3\.d1
*1126 w0\.fb_block_I\.gs_f\.fb_gray_selector_loop\[7\]\.eff3\.d2
*1127 w0\.fb_block_I\.gs_f\.fb_gray_selector_loop\[7\]\.eff3\.dff\.q
*1128 w0\.fb_block_I\.gs_f\.fb_gray_selector_loop\[7\]\.eff3\.dff_n\.q
*1129 w0\.fb_block_I\.gs_f\.fb_gray_selector_loop\[7\]\.t_buf\.ctrlb
*1130 w0\.fb_block_I\.gs_f\.fb_gray_selector_loop\[7\]\.t_buf\.in
*1131 w0\.fb_block_I\.gs_f\.fb_gray_selector_loop\[8\]\.eff3\.d1
*1132 w0\.fb_block_I\.gs_f\.fb_gray_selector_loop\[8\]\.eff3\.d2
*1133 w0\.fb_block_I\.gs_f\.fb_gray_selector_loop\[8\]\.eff3\.dff\.q
*1134 w0\.fb_block_I\.gs_f\.fb_gray_selector_loop\[8\]\.eff3\.dff_n\.q
*1135 w0\.fb_block_I\.gs_f\.fb_gray_selector_loop\[8\]\.t_buf\.ctrlb
*1136 w0\.fb_block_I\.gs_f\.fb_gray_selector_loop\[8\]\.t_buf\.in
*1137 w0\.fb_block_I\.gs_f\.fb_gray_selector_loop\[9\]\.eff3\.d1
*1138 w0\.fb_block_I\.gs_f\.fb_gray_selector_loop\[9\]\.eff3\.d2
*1139 w0\.fb_block_I\.gs_f\.fb_gray_selector_loop\[9\]\.eff3\.dff\.q
*1140 w0\.fb_block_I\.gs_f\.fb_gray_selector_loop\[9\]\.eff3\.dff_n\.q
*1141 w0\.fb_block_I\.gs_f\.fb_gray_selector_loop\[9\]\.t_buf\.ctrlb
*1142 w0\.fb_block_I\.gs_f\.fb_gray_selector_loop\[9\]\.t_buf\.in
*1143 w0\.fb_block_I\.ud_c\.bin_counter\[0\]\.cc\.q
*1144 w0\.fb_block_I\.ud_c\.bin_counter\[0\]\.cc\.tff1\.d
*1145 w0\.fb_block_I\.ud_c\.bin_counter\[10\]\.cc\.tff1\.d
*1146 w0\.fb_block_I\.ud_c\.bin_counter\[11\]\.cc\.tff1\.d
*1147 w0\.fb_block_I\.ud_c\.bin_counter\[12\]\.cc\.tff1\.d
*1148 w0\.fb_block_I\.ud_c\.bin_counter\[13\]\.cc\.tff1\.d
*1149 w0\.fb_block_I\.ud_c\.bin_counter\[1\]\.cc\.q
*1150 w0\.fb_block_I\.ud_c\.bin_counter\[1\]\.cc\.tff1\.d
*1151 w0\.fb_block_I\.ud_c\.bin_counter\[2\]\.cc\.q
*1152 w0\.fb_block_I\.ud_c\.bin_counter\[2\]\.cc\.tff1\.d
*1153 w0\.fb_block_I\.ud_c\.bin_counter\[3\]\.cc\.q
*1154 w0\.fb_block_I\.ud_c\.bin_counter\[3\]\.cc\.tff1\.d
*1155 w0\.fb_block_I\.ud_c\.bin_counter\[4\]\.cc\.q
*1156 w0\.fb_block_I\.ud_c\.bin_counter\[4\]\.cc\.tff1\.d
*1157 w0\.fb_block_I\.ud_c\.bin_counter\[5\]\.cc\.tff1\.d
*1158 w0\.fb_block_I\.ud_c\.bin_counter\[6\]\.cc\.tff1\.d
*1159 w0\.fb_block_I\.ud_c\.bin_counter\[7\]\.cc\.tff1\.d
*1160 w0\.fb_block_I\.ud_c\.bin_counter\[8\]\.cc\.tff1\.d
*1161 w0\.fb_block_I\.ud_c\.bin_counter\[9\]\.cc\.tff1\.d
*1162 w0\.fb_block_I\.ud_c\.cc1\.q
*1163 w0\.fb_block_I\.ud_c\.cc1\.tff1\.d
*1164 w0\.fb_block_I\.ud_c\.tff_end\.d
*1165 w0\.fb_block_Q\.gs_f\.fb_gray_selector_loop\[0\]\.dl\.d
*1166 w0\.fb_block_Q\.gs_f\.fb_gray_selector_loop\[0\]\.eff3\.d1
*1167 w0\.fb_block_Q\.gs_f\.fb_gray_selector_loop\[0\]\.eff3\.d2
*1168 w0\.fb_block_Q\.gs_f\.fb_gray_selector_loop\[0\]\.eff3\.dff\.q
*1169 w0\.fb_block_Q\.gs_f\.fb_gray_selector_loop\[0\]\.eff3\.dff_n\.q
*1170 w0\.fb_block_Q\.gs_f\.fb_gray_selector_loop\[0\]\.t_buf\.ctrlb
*1171 w0\.fb_block_Q\.gs_f\.fb_gray_selector_loop\[0\]\.t_buf\.in
*1172 w0\.fb_block_Q\.gs_f\.fb_gray_selector_loop\[1\]\.eff3\.d1
*1173 w0\.fb_block_Q\.gs_f\.fb_gray_selector_loop\[1\]\.eff3\.d2
*1174 w0\.fb_block_Q\.gs_f\.fb_gray_selector_loop\[1\]\.eff3\.dff\.q
*1175 w0\.fb_block_Q\.gs_f\.fb_gray_selector_loop\[1\]\.eff3\.dff_n\.q
*1176 w0\.fb_block_Q\.gs_f\.fb_gray_selector_loop\[1\]\.t_buf\.ctrlb
*1177 w0\.fb_block_Q\.gs_f\.fb_gray_selector_loop\[1\]\.t_buf\.in
*1178 w0\.fb_block_Q\.gs_f\.fb_gray_selector_loop\[2\]\.eff3\.d1
*1179 w0\.fb_block_Q\.gs_f\.fb_gray_selector_loop\[2\]\.eff3\.d2
*1180 w0\.fb_block_Q\.gs_f\.fb_gray_selector_loop\[2\]\.eff3\.dff\.q
*1181 w0\.fb_block_Q\.gs_f\.fb_gray_selector_loop\[2\]\.eff3\.dff_n\.q
*1182 w0\.fb_block_Q\.gs_f\.fb_gray_selector_loop\[2\]\.t_buf\.ctrlb
*1183 w0\.fb_block_Q\.gs_f\.fb_gray_selector_loop\[2\]\.t_buf\.in
*1184 w0\.fb_block_Q\.gs_f\.fb_gray_selector_loop\[3\]\.eff3\.d1
*1185 w0\.fb_block_Q\.gs_f\.fb_gray_selector_loop\[3\]\.eff3\.d2
*1186 w0\.fb_block_Q\.gs_f\.fb_gray_selector_loop\[3\]\.eff3\.dff\.q
*1187 w0\.fb_block_Q\.gs_f\.fb_gray_selector_loop\[3\]\.eff3\.dff_n\.q
*1188 w0\.fb_block_Q\.gs_f\.fb_gray_selector_loop\[3\]\.t_buf\.ctrlb
*1189 w0\.fb_block_Q\.gs_f\.fb_gray_selector_loop\[3\]\.t_buf\.in
*1190 w0\.fb_block_Q\.gs_f\.fb_gray_selector_loop\[4\]\.eff3\.d1
*1191 w0\.fb_block_Q\.gs_f\.fb_gray_selector_loop\[4\]\.eff3\.d2
*1192 w0\.fb_block_Q\.gs_f\.fb_gray_selector_loop\[4\]\.eff3\.dff\.q
*1193 w0\.fb_block_Q\.gs_f\.fb_gray_selector_loop\[4\]\.eff3\.dff_n\.q
*1194 w0\.fb_block_Q\.gs_f\.fb_gray_selector_loop\[4\]\.t_buf\.ctrlb
*1195 w0\.fb_block_Q\.gs_f\.fb_gray_selector_loop\[4\]\.t_buf\.in
*1196 w0\.fb_block_Q\.gs_f\.fb_gray_selector_loop\[5\]\.eff3\.d1
*1197 w0\.fb_block_Q\.gs_f\.fb_gray_selector_loop\[5\]\.eff3\.d2
*1198 w0\.fb_block_Q\.gs_f\.fb_gray_selector_loop\[5\]\.eff3\.dff\.q
*1199 w0\.fb_block_Q\.gs_f\.fb_gray_selector_loop\[5\]\.eff3\.dff_n\.q
*1200 w0\.fb_block_Q\.gs_f\.fb_gray_selector_loop\[5\]\.t_buf\.ctrlb
*1201 w0\.fb_block_Q\.gs_f\.fb_gray_selector_loop\[5\]\.t_buf\.in
*1202 w0\.fb_block_Q\.gs_f\.fb_gray_selector_loop\[6\]\.eff3\.d1
*1203 w0\.fb_block_Q\.gs_f\.fb_gray_selector_loop\[6\]\.eff3\.d2
*1204 w0\.fb_block_Q\.gs_f\.fb_gray_selector_loop\[6\]\.eff3\.dff\.q
*1205 w0\.fb_block_Q\.gs_f\.fb_gray_selector_loop\[6\]\.eff3\.dff_n\.q
*1206 w0\.fb_block_Q\.gs_f\.fb_gray_selector_loop\[6\]\.t_buf\.ctrlb
*1207 w0\.fb_block_Q\.gs_f\.fb_gray_selector_loop\[6\]\.t_buf\.in
*1208 w0\.fb_block_Q\.gs_f\.fb_gray_selector_loop\[7\]\.eff3\.d1
*1209 w0\.fb_block_Q\.gs_f\.fb_gray_selector_loop\[7\]\.eff3\.d2
*1210 w0\.fb_block_Q\.gs_f\.fb_gray_selector_loop\[7\]\.eff3\.dff\.q
*1211 w0\.fb_block_Q\.gs_f\.fb_gray_selector_loop\[7\]\.eff3\.dff_n\.q
*1212 w0\.fb_block_Q\.gs_f\.fb_gray_selector_loop\[7\]\.t_buf\.ctrlb
*1213 w0\.fb_block_Q\.gs_f\.fb_gray_selector_loop\[7\]\.t_buf\.in
*1214 w0\.fb_block_Q\.gs_f\.fb_gray_selector_loop\[8\]\.eff3\.d1
*1215 w0\.fb_block_Q\.gs_f\.fb_gray_selector_loop\[8\]\.eff3\.d2
*1216 w0\.fb_block_Q\.gs_f\.fb_gray_selector_loop\[8\]\.eff3\.dff\.q
*1217 w0\.fb_block_Q\.gs_f\.fb_gray_selector_loop\[8\]\.eff3\.dff_n\.q
*1218 w0\.fb_block_Q\.gs_f\.fb_gray_selector_loop\[8\]\.t_buf\.ctrlb
*1219 w0\.fb_block_Q\.gs_f\.fb_gray_selector_loop\[8\]\.t_buf\.in
*1220 w0\.fb_block_Q\.gs_f\.fb_gray_selector_loop\[9\]\.eff3\.d1
*1221 w0\.fb_block_Q\.gs_f\.fb_gray_selector_loop\[9\]\.eff3\.d2
*1222 w0\.fb_block_Q\.gs_f\.fb_gray_selector_loop\[9\]\.eff3\.dff\.q
*1223 w0\.fb_block_Q\.gs_f\.fb_gray_selector_loop\[9\]\.eff3\.dff_n\.q
*1224 w0\.fb_block_Q\.gs_f\.fb_gray_selector_loop\[9\]\.t_buf\.ctrlb
*1225 w0\.fb_block_Q\.gs_f\.fb_gray_selector_loop\[9\]\.t_buf\.in
*1226 w0\.fb_block_Q\.ud_c\.bin_counter\[0\]\.cc\.q
*1227 w0\.fb_block_Q\.ud_c\.bin_counter\[0\]\.cc\.tff1\.d
*1228 w0\.fb_block_Q\.ud_c\.bin_counter\[10\]\.cc\.tff1\.d
*1229 w0\.fb_block_Q\.ud_c\.bin_counter\[11\]\.cc\.tff1\.d
*1230 w0\.fb_block_Q\.ud_c\.bin_counter\[12\]\.cc\.tff1\.d
*1231 w0\.fb_block_Q\.ud_c\.bin_counter\[13\]\.cc\.tff1\.d
*1232 w0\.fb_block_Q\.ud_c\.bin_counter\[1\]\.cc\.q
*1233 w0\.fb_block_Q\.ud_c\.bin_counter\[1\]\.cc\.tff1\.d
*1234 w0\.fb_block_Q\.ud_c\.bin_counter\[2\]\.cc\.q
*1235 w0\.fb_block_Q\.ud_c\.bin_counter\[2\]\.cc\.tff1\.d
*1236 w0\.fb_block_Q\.ud_c\.bin_counter\[3\]\.cc\.q
*1237 w0\.fb_block_Q\.ud_c\.bin_counter\[3\]\.cc\.tff1\.d
*1238 w0\.fb_block_Q\.ud_c\.bin_counter\[4\]\.cc\.q
*1239 w0\.fb_block_Q\.ud_c\.bin_counter\[4\]\.cc\.tff1\.d
*1240 w0\.fb_block_Q\.ud_c\.bin_counter\[5\]\.cc\.tff1\.d
*1241 w0\.fb_block_Q\.ud_c\.bin_counter\[6\]\.cc\.tff1\.d
*1242 w0\.fb_block_Q\.ud_c\.bin_counter\[7\]\.cc\.tff1\.d
*1243 w0\.fb_block_Q\.ud_c\.bin_counter\[8\]\.cc\.tff1\.d
*1244 w0\.fb_block_Q\.ud_c\.bin_counter\[9\]\.cc\.tff1\.d
*1245 w0\.fb_block_Q\.ud_c\.cc1\.q
*1246 w0\.fb_block_Q\.ud_c\.cc1\.tff1\.d
*1247 w0\.fb_block_Q\.ud_c\.tff_end\.d
*1248 w0\.gray_gen\.cell2\.eff_gray\.d1
*1249 w0\.gray_gen\.cell2\.eff_gray\.d2
*1250 w0\.gray_gen\.cell2\.eff_gray\.dff\.q
*1251 w0\.gray_gen\.cell2\.eff_gray\.dff_n\.q
*1252 w0\.gray_gen\.first_gray\.eff\.d1
*1253 w0\.gray_gen\.first_gray\.eff\.d2
*1254 w0\.gray_gen\.first_gray\.eff\.dff\.q
*1255 w0\.gray_gen\.first_gray\.eff\.dff_n\.q
*1256 w0\.gray_gen\.first_gray\.t_ff\.eff_gray\.d1
*1257 w0\.gray_gen\.first_gray\.t_ff\.eff_gray\.d2
*1258 w0\.gray_gen\.first_gray\.t_ff\.eff_gray\.dff\.q
*1259 w0\.gray_gen\.first_gray\.t_ff\.eff_gray\.dff_n\.q
*1260 w0\.gray_gen\.gray_loop\[1\]\.gray\.eff_gray\.d1
*1261 w0\.gray_gen\.gray_loop\[1\]\.gray\.eff_gray\.d2
*1262 w0\.gray_gen\.gray_loop\[1\]\.gray\.eff_gray\.dff\.q
*1263 w0\.gray_gen\.gray_loop\[1\]\.gray\.eff_gray\.dff_n\.q
*1264 w0\.gray_gen\.gray_loop\[2\]\.gray\.eff_gray\.d1
*1265 w0\.gray_gen\.gray_loop\[2\]\.gray\.eff_gray\.d2
*1266 w0\.gray_gen\.gray_loop\[2\]\.gray\.eff_gray\.dff\.q
*1267 w0\.gray_gen\.gray_loop\[2\]\.gray\.eff_gray\.dff_n\.q
*1268 w0\.gray_gen\.gray_loop\[3\]\.gray\.eff_gray\.d1
*1269 w0\.gray_gen\.gray_loop\[3\]\.gray\.eff_gray\.d2
*1270 w0\.gray_gen\.gray_loop\[3\]\.gray\.eff_gray\.dff\.q
*1271 w0\.gray_gen\.gray_loop\[3\]\.gray\.eff_gray\.dff_n\.q
*1272 w0\.gray_gen\.gray_loop\[4\]\.gray\.eff_gray\.d1
*1273 w0\.gray_gen\.gray_loop\[4\]\.gray\.eff_gray\.d2
*1274 w0\.gray_gen\.gray_loop\[4\]\.gray\.eff_gray\.dff\.q
*1275 w0\.gray_gen\.gray_loop\[4\]\.gray\.eff_gray\.dff_n\.q
*1276 w0\.gray_gen\.gray_loop\[5\]\.gray\.eff_gray\.d1
*1277 w0\.gray_gen\.gray_loop\[5\]\.gray\.eff_gray\.d2
*1278 w0\.gray_gen\.gray_loop\[5\]\.gray\.eff_gray\.dff\.q
*1279 w0\.gray_gen\.gray_loop\[5\]\.gray\.eff_gray\.dff_n\.q
*1280 w0\.gray_gen\.gray_loop\[5\]\.gray\.inv_out
*1281 w0\.gray_gen\.gray_loop\[6\]\.gray\.eff_gray\.d1
*1282 w0\.gray_gen\.gray_loop\[6\]\.gray\.eff_gray\.d2
*1283 w0\.gray_gen\.gray_loop\[6\]\.gray\.eff_gray\.dff\.q
*1284 w0\.gray_gen\.gray_loop\[6\]\.gray\.eff_gray\.dff_n\.q
*1285 w0\.gray_gen\.gray_loop\[6\]\.gray\.inv_out
*1286 w0\.gray_gen\.gray_loop\[7\]\.gray\.eff_gray\.d1
*1287 w0\.gray_gen\.gray_loop\[7\]\.gray\.eff_gray\.d2
*1288 w0\.gray_gen\.gray_loop\[7\]\.gray\.eff_gray\.dff\.q
*1289 w0\.gray_gen\.gray_loop\[7\]\.gray\.eff_gray\.dff_n\.q
*1290 w0\.gray_gen\.gray_loop\[7\]\.gray\.inv_out
*1291 w0\.gray_gen\.gray_loop\[8\]\.gray\.eff_gray\.d1
*1292 w0\.gray_gen\.gray_loop\[8\]\.gray\.eff_gray\.d2
*1293 w0\.gray_gen\.gray_loop\[8\]\.gray\.eff_gray\.dff\.q
*1294 w0\.gray_gen\.gray_loop\[8\]\.gray\.eff_gray\.dff_n\.q
*1295 w0\.gray_gen\.gray_loop\[8\]\.gray\.inv_out
*1296 w0\.gray_gen\.gray_loop\[9\]\.gray\.eff_gray\.d1
*1297 w0\.gray_gen\.gray_loop\[9\]\.gray\.eff_gray\.d2
*1298 w0\.gray_gen\.gray_loop\[9\]\.gray\.eff_gray\.dff\.q
*1299 w0\.gray_gen\.gray_loop\[9\]\.gray\.eff_gray\.dff_n\.q
*1300 w0\.gray_gen\.gray_loop\[9\]\.gray\.inv_out
*1301 w0\.gray_gen\.sine_cell\.eff_gray\.d1
*1302 w0\.gray_gen\.sine_cell\.eff_gray\.d2
*1303 w0\.gray_gen\.sine_cell\.eff_gray\.dff\.q
*1304 w0\.gray_gen\.sine_cell\.eff_gray\.dff_n\.q
*1305 w0\.ro_block_I\.out_mux_eve
*1306 w0\.ro_block_I\.out_mux_pol_eve
*1307 w0\.ro_block_I\.ro_pol\.eff\.eff_gray\.d1
*1308 w0\.ro_block_I\.ro_pol\.eff\.eff_gray\.d2
*1309 w0\.ro_block_I\.ro_pol\.eff\.eff_gray\.dff\.q
*1310 w0\.ro_block_I\.ro_pol\.eff\.eff_gray\.dff_n\.q
*1311 w0\.ro_block_I\.ro_pol\.eff_outb
*1312 w0\.ro_block_I\.ro_pol_eve\.eff\.eff_gray\.d1
*1313 w0\.ro_block_I\.ro_pol_eve\.eff\.eff_gray\.d2
*1314 w0\.ro_block_I\.ro_pol_eve\.eff\.eff_gray\.dff\.q
*1315 w0\.ro_block_I\.ro_pol_eve\.eff\.eff_gray\.dff_n\.q
*1316 w0\.ro_block_I\.ro_pol_eve\.eff_outb
*1317 w0\.ro_block_Q\.out_mux_eve
*1318 w0\.ro_block_Q\.out_mux_pol_eve
*1319 w0\.ro_block_Q\.ro_pol\.eff\.eff_gray\.d1
*1320 w0\.ro_block_Q\.ro_pol\.eff\.eff_gray\.d2
*1321 w0\.ro_block_Q\.ro_pol\.eff\.eff_gray\.dff\.q
*1322 w0\.ro_block_Q\.ro_pol\.eff\.eff_gray\.dff_n\.q
*1323 w0\.ro_block_Q\.ro_pol\.eff_outb
*1324 w0\.ro_block_Q\.ro_pol_eve\.eff\.eff_gray\.d1
*1325 w0\.ro_block_Q\.ro_pol_eve\.eff\.eff_gray\.d2
*1326 w0\.ro_block_Q\.ro_pol_eve\.eff\.eff_gray\.dff\.q
*1327 w0\.ro_block_Q\.ro_pol_eve\.eff\.eff_gray\.dff_n\.q
*1328 w0\.ro_block_Q\.ro_pol_eve\.eff_outb
*1329 wrapper_cell_loop\[0\]\.w1\.POL_EVE_I\.comp_out
*1330 wrapper_cell_loop\[0\]\.w1\.POL_EVE_I\.dff1\.q
*1331 wrapper_cell_loop\[0\]\.w1\.POL_EVE_I\.dff2\.q
*1332 wrapper_cell_loop\[0\]\.w1\.POL_EVE_I\.dff3\.q
*1333 wrapper_cell_loop\[0\]\.w1\.POL_EVE_I\.eve
*1334 wrapper_cell_loop\[0\]\.w1\.POL_EVE_I\.polxevent
*1335 wrapper_cell_loop\[0\]\.w1\.POL_EVE_Q\.comp_out
*1336 wrapper_cell_loop\[0\]\.w1\.POL_EVE_Q\.dff1\.q
*1337 wrapper_cell_loop\[0\]\.w1\.POL_EVE_Q\.dff2\.q
*1338 wrapper_cell_loop\[0\]\.w1\.POL_EVE_Q\.dff3\.q
*1339 wrapper_cell_loop\[0\]\.w1\.POL_EVE_Q\.eve
*1340 wrapper_cell_loop\[0\]\.w1\.POL_EVE_Q\.polxevent
*1341 wrapper_cell_loop\[0\]\.w1\.bank1\.cos_out
*1342 wrapper_cell_loop\[0\]\.w1\.bank1\.sin_out
*1343 wrapper_cell_loop\[0\]\.w1\.cclk_I
*1344 wrapper_cell_loop\[0\]\.w1\.div2\.dff\.d
*1345 wrapper_cell_loop\[0\]\.w1\.div2\.dff\.q
*1346 wrapper_cell_loop\[0\]\.w1\.fb1_I