*SPEF "ieee 1481-1999"
*DESIGN "digital_unison"
*DATE "11:11:11 Fri 11 11, 1111"
*VENDOR "OpenRCX"
*PROGRAM "Parallel Extraction"
*VERSION "1.0"
*DESIGN_FLOW "NAME_SCOPE LOCAL" "PIN_CAP NONE"
*DIVIDER /
*DELIMITER :
*BUS_DELIMITER []
*T_UNIT 1 NS
*C_UNIT 1 PF
*R_UNIT 1 OHM
*L_UNIT 1 HENRY

*NAME_MAP
*1 cclk_I[0]
*2 cclk_I[1]
*3 cclk_Q[0]
*4 cclk_Q[1]
*5 clk_master
*6 clkdiv2_I[0]
*7 clkdiv2_I[1]
*8 clkdiv2_Q[0]
*9 clkdiv2_Q[1]
*10 comp_high_I[0]
*11 comp_high_I[1]
*12 comp_high_Q[0]
*13 comp_high_Q[1]
*14 cos_out[0]
*15 cos_out[1]
*16 cos_outb[0]
*17 cos_outb[1]
*18 fb1_I[0]
*19 fb1_I[1]
*20 fb1_Q[0]
*21 fb1_Q[1]
*22 fb2_I[0]
*23 fb2_I[1]
*24 fb2_Q[0]
*25 fb2_Q[1]
*26 phi1b_dig_I[0]
*27 phi1b_dig_I[1]
*28 phi1b_dig_Q[0]
*29 phi1b_dig_Q[1]
*30 read_out_I[0]
*31 read_out_I[1]
*32 read_out_Q[0]
*33 read_out_Q[1]
*34 rstb
*35 sin_out[0]
*36 sin_out[1]
*37 sin_outb[0]
*38 sin_outb[1]
*39 ud_en
*42 _0000_
*43 _0001_
*44 _0002_
*45 _0003_
*46 _0004_
*47 _0005_
*48 _0006_
*49 _0007_
*50 _0023_
*51 _0026_
*52 _0029_
*53 _0032_
*54 _0033_
*55 _0034_
*56 _0035_
*57 _0036_
*58 _0037_
*59 _0038_
*60 _0039_
*61 _0040_
*62 _0041_
*63 _0042_
*64 _0043_
*65 _0044_
*66 _0045_
*67 _0046_
*68 _0047_
*69 _0048_
*70 _0049_
*71 _0050_
*72 _0051_
*73 _0052_
*74 _0053_
*75 _0054_
*76 _0055_
*77 _0056_
*78 _0057_
*79 _0058_
*80 _0059_
*81 _0060_
*82 _0061_
*83 _0062_
*84 _0063_
*85 _0064_
*86 _0065_
*87 _0066_
*88 _0067_
*89 _0068_
*90 _0069_
*91 _0070_
*92 _0071_
*93 _0072_
*94 _0073_
*95 _0074_
*96 _0075_
*97 _0076_
*98 _0077_
*99 _0078_
*100 _0079_
*101 _0080_
*102 _0081_
*103 _0082_
*104 _0083_
*105 _0084_
*106 _0085_
*107 _0086_
*108 _0087_
*109 _0088_
*110 _0089_
*111 _0090_
*112 _0091_
*113 _0092_
*114 _0093_
*115 _0096_
*116 _0097_
*117 _0098_
*118 _0099_
*119 _0102_
*120 _0105_
*121 _0108_
*122 _0110_
*123 _0113_
*124 _0116_
*125 _0119_
*126 _0123_
*127 _0126_
*128 _0129_
*129 _0132_
*130 _0135_
*131 _0138_
*132 _0140_
*133 _0143_
*134 _0146_
*135 _0149_
*136 _0153_
*137 _0156_
*138 _0159_
*139 _0161_
*140 _0162_
*141 _0163_
*142 _0164_
*143 _0165_
*144 _0166_
*145 _0167_
*146 _0168_
*147 _0169_
*148 _0170_
*149 _0171_
*150 _0172_
*151 _0173_
*152 _0174_
*153 _0175_
*154 _0176_
*155 _0177_
*156 _0178_
*157 _0179_
*158 _0180_
*159 _0181_
*160 _0182_
*161 _0183_
*162 _0184_
*163 _0185_
*164 _0186_
*165 _0187_
*166 _0188_
*167 _0189_
*168 _0190_
*169 _0191_
*170 _0192_
*171 _0193_
*172 _0194_
*173 _0195_
*174 _0196_
*175 _0197_
*176 _0198_
*177 _0199_
*178 _0200_
*179 _0201_
*180 _0202_
*181 _0203_
*182 _0204_
*183 _0205_
*184 _0206_
*185 _0207_
*186 _0208_
*187 _0209_
*188 _0210_
*189 _0211_
*190 _0212_
*191 _0213_
*192 _0214_
*193 _0215_
*194 _0216_
*195 _0217_
*196 _0218_
*197 _0219_
*198 _0220_
*199 _0221_
*200 _0222_
*201 _0223_
*202 _0224_
*203 _0225_
*204 _0226_
*205 _0227_
*206 _0228_
*207 _0229_
*208 _0230_
*209 _0231_
*210 _0232_
*211 _0233_
*212 _0234_
*213 _0235_
*214 _0236_
*215 _0237_
*216 _0238_
*217 _0239_
*218 _0240_
*219 _0241_
*220 _0242_
*221 _0243_
*222 _0244_
*223 _0245_
*224 _0246_
*225 _0247_
*226 _0248_
*227 _0249_
*228 _0250_
*229 _0251_
*230 _0252_
*231 _0253_
*232 _0254_
*233 _0255_
*234 _0256_
*235 _0257_
*236 _0258_
*237 _0259_
*238 _0260_
*239 _0261_
*240 _0262_
*241 _0263_
*242 _0264_
*243 _0265_
*244 _0266_
*245 _0267_
*246 _0268_
*247 _0269_
*248 _0270_
*249 _0271_
*250 _0272_
*251 _0273_
*252 _0274_
*253 _0275_
*254 _0276_
*255 _0277_
*256 _0278_
*257 _0279_
*258 _0280_
*259 _0281_
*260 _0282_
*261 _0283_
*262 _0284_
*263 _0285_
*264 _0286_
*265 _0287_
*266 _0288_
*267 _0289_
*268 _0290_
*269 _0291_
*270 _0292_
*271 _0293_
*272 _0294_
*273 _0295_
*274 _0296_
*275 _0297_
*276 _0298_
*277 _0299_
*278 _0300_
*279 _0301_
*280 _0302_
*281 _0303_
*282 _0304_
*283 _0305_
*284 _0306_
*285 _0307_
*286 _0308_
*287 _0309_
*288 _0310_
*289 _0311_
*290 _0312_
*291 _0313_
*292 _0314_
*293 _0315_
*294 _0316_
*295 _0317_
*296 _0318_
*297 _0319_
*298 _0320_
*299 _0321_
*300 _0322_
*301 _0323_
*302 _0324_
*303 _0325_
*304 _0326_
*305 _0327_
*306 _0328_
*307 _0329_
*308 _0330_
*309 _0331_
*310 _0332_
*311 _0333_
*312 _0334_
*313 _0335_
*314 _0336_
*315 _0337_
*316 _0338_
*317 _0339_
*318 _0340_
*319 _0341_
*320 _0342_
*321 _0343_
*322 _0344_
*323 _0345_
*324 _0346_
*325 _0347_
*326 _0348_
*327 _0349_
*328 _0350_
*329 _0351_
*330 _0352_
*331 _0353_
*332 _0354_
*333 _0355_
*334 _0356_
*335 _0357_
*336 _0358_
*337 _0359_
*338 _0360_
*339 _0361_
*340 _0362_
*341 _0363_
*342 _0364_
*343 _0365_
*344 _0366_
*345 _0367_
*346 _0368_
*347 _0369_
*348 _0370_
*349 _0371_
*350 _0372_
*351 _0373_
*352 _0374_
*353 _0375_
*354 _0376_
*355 _0377_
*356 _0378_
*357 _0379_
*358 _0380_
*359 _0381_
*360 _0382_
*361 _0383_
*362 _0384_
*363 _0385_
*364 _0386_
*365 _0387_
*366 _0388_
*367 _0389_
*368 _0390_
*369 _0391_
*370 _0392_
*371 _0393_
*372 _0394_
*373 _0395_
*374 _0396_
*375 _0397_
*376 _0398_
*377 _0399_
*378 _0400_
*379 _0401_
*380 _0402_
*381 _0403_
*382 _0404_
*383 _0405_
*384 _0406_
*385 _0407_
*386 _0408_
*387 _0409_
*388 _0410_
*389 _0411_
*390 _0412_
*391 _0413_
*392 _0414_
*393 _0415_
*394 _0416_
*395 _0417_
*396 _0418_
*397 _0419_
*398 _0420_
*399 _0421_
*400 _0422_
*401 _0423_
*402 _0424_
*403 _0425_
*404 _0426_
*405 _0427_
*406 _0428_
*407 _0429_
*408 _0430_
*409 _0431_
*410 _0432_
*411 _0433_
*412 _0434_
*413 _0435_
*414 _0436_
*415 _0437_
*416 _0438_
*417 _0439_
*418 _0440_
*419 _0441_
*420 _0442_
*421 _0443_
*422 _0444_
*423 _0445_
*424 _0446_
*425 _0447_
*426 _0448_
*427 _0449_
*428 _0450_
*429 _0451_
*430 _0452_
*431 _0453_
*432 _0454_
*433 _0455_
*434 _0456_
*435 _0457_
*436 _0458_
*437 _0459_
*438 _0460_
*439 _0461_
*440 _0462_
*441 _0463_
*442 _0464_
*443 _0465_
*444 _0466_
*445 _0467_
*446 _0468_
*447 _0469_
*448 _0470_
*449 _0471_
*450 _0472_
*451 _0473_
*452 _0474_
*453 _0475_
*454 _0476_
*455 _0477_
*456 _0478_
*457 _0479_
*458 _0480_
*459 _0481_
*460 _0482_
*461 _0483_
*462 _0484_
*463 clknet_0__0323_
*464 clknet_0__0324_
*465 clknet_0__0325_
*466 clknet_0__0326_
*467 clknet_0__0332_
*468 clknet_0__0333_
*469 clknet_0__0334_
*470 clknet_0__0335_
*471 clknet_0__0336_
*472 clknet_0__0337_
*473 clknet_0__0338_
*474 clknet_0__0339_
*475 clknet_0__0340_
*476 clknet_0__0341_
*477 clknet_0__0348_
*478 clknet_0_clk_master
*479 clknet_0_w0\.cclk_I
*480 clknet_1_0__leaf__0323_
*481 clknet_1_0__leaf__0324_
*482 clknet_1_0__leaf__0325_
*483 clknet_1_0__leaf__0326_
*484 clknet_1_0__leaf__0332_
*485 clknet_1_0__leaf__0333_
*486 clknet_1_0__leaf__0334_
*487 clknet_1_0__leaf__0335_
*488 clknet_1_0__leaf__0336_
*489 clknet_1_0__leaf__0337_
*490 clknet_1_0__leaf__0338_
*491 clknet_1_0__leaf__0339_
*492 clknet_1_0__leaf__0340_
*493 clknet_1_0__leaf__0341_
*494 clknet_1_0__leaf__0348_
*495 clknet_1_1__leaf__0323_
*496 clknet_1_1__leaf__0324_
*497 clknet_1_1__leaf__0325_
*498 clknet_1_1__leaf__0326_
*499 clknet_1_1__leaf__0332_
*500 clknet_1_1__leaf__0333_
*501 clknet_1_1__leaf__0334_
*502 clknet_1_1__leaf__0335_
*503 clknet_1_1__leaf__0336_
*504 clknet_1_1__leaf__0337_
*505 clknet_1_1__leaf__0338_
*506 clknet_1_1__leaf__0339_
*507 clknet_1_1__leaf__0340_
*508 clknet_1_1__leaf__0341_
*509 clknet_1_1__leaf__0348_
*510 clknet_2_0__leaf_clk_master
*511 clknet_2_0__leaf_w0\.cclk_I
*512 clknet_2_1__leaf_clk_master
*513 clknet_2_1__leaf_w0\.cclk_I
*514 clknet_2_2__leaf_clk_master
*515 clknet_2_2__leaf_w0\.cclk_I
*516 clknet_2_3__leaf_clk_master
*517 clknet_2_3__leaf_w0\.cclk_I
*518 net1
*519 net10
*520 net100
*521 net101
*522 net102
*523 net103
*524 net104
*525 net105
*526 net106
*527 net107
*528 net108
*529 net109
*530 net11
*531 net110
*532 net111
*533 net112
*534 net113
*535 net114
*536 net115
*537 net116
*538 net117
*539 net118
*540 net119
*541 net12
*542 net120
*543 net121
*544 net122
*545 net123
*546 net124
*547 net125
*548 net126
*549 net127
*550 net128
*551 net129
*552 net13
*553 net130
*554 net131
*555 net132
*556 net133
*557 net134
*558 net135
*559 net136
*560 net137
*561 net138
*562 net139
*563 net14
*564 net140
*565 net141
*566 net142
*567 net143
*568 net144
*569 net145
*570 net146
*571 net147
*572 net148
*573 net149
*574 net15
*575 net150
*576 net151
*577 net152
*578 net153
*579 net154
*580 net155
*581 net156
*582 net157
*583 net158
*584 net159
*585 net16
*586 net160
*587 net161
*588 net162
*589 net163
*590 net164
*591 net165
*592 net166
*593 net167
*594 net168
*595 net169
*596 net17
*597 net170
*598 net171
*599 net172
*600 net173
*601 net174
*602 net175
*603 net176
*604 net177
*605 net178
*606 net179
*607 net18
*608 net180
*609 net181
*610 net182
*611 net183
*612 net184
*613 net185
*614 net186
*615 net187
*616 net188
*617 net189
*618 net19
*619 net190
*620 net191
*621 net192
*622 net193
*623 net194
*624 net195
*625 net196
*626 net197
*627 net198
*628 net199
*629 net2
*630 net20
*631 net200
*632 net201
*633 net202
*634 net203
*635 net204
*636 net205
*637 net206
*638 net207
*639 net208
*640 net209
*641 net21
*642 net210
*643 net211
*644 net22
*645 net23
*646 net24
*647 net25
*648 net26
*649 net27
*650 net28
*651 net29
*652 net3
*653 net30
*654 net31
*655 net32
*656 net33
*657 net34
*658 net35
*659 net36
*660 net37
*661 net38
*662 net39
*663 net4
*664 net40
*665 net41
*666 net42
*667 net43
*668 net44
*669 net45
*670 net46
*671 net47
*672 net48
*673 net49
*674 net5
*675 net50
*676 net51
*677 net52
*678 net53
*679 net54
*680 net55
*681 net56
*682 net57
*683 net58
*684 net59
*685 net6
*686 net60
*687 net61
*688 net62
*689 net63
*690 net64
*691 net65
*692 net66
*693 net67
*694 net68
*695 net69
*696 net7
*697 net70
*698 net71
*699 net72
*700 net73
*701 net74
*702 net75
*703 net76
*704 net77
*705 net78
*706 net79
*707 net8
*708 net80
*709 net81
*710 net82
*711 net83
*712 net84
*713 net85
*714 net86
*715 net87
*716 net88
*717 net89
*718 net9
*719 net90
*720 net91
*721 net92
*722 net93
*723 net94
*724 net95
*725 net96
*726 net97
*727 net98
*728 net99
*729 w0\.POL_EVE_I\.comp_out
*730 w0\.POL_EVE_I\.dff1\.q
*731 w0\.POL_EVE_I\.dff2\.q
*732 w0\.POL_EVE_I\.dff3\.q
*733 w0\.POL_EVE_I\.eve
*734 w0\.POL_EVE_I\.polxevent
*735 w0\.POL_EVE_Q\.comp_out
*736 w0\.POL_EVE_Q\.dff1\.q
*737 w0\.POL_EVE_Q\.dff2\.q
*738 w0\.POL_EVE_Q\.dff3\.q
*739 w0\.POL_EVE_Q\.eve
*740 w0\.POL_EVE_Q\.polxevent
*741 w0\.bank1\.cos_out
*742 w0\.bank1\.sin_out
*743 w0\.cclk_I
*744 w0\.div2\.dff\.d
*745 w0\.div2\.dff\.q
*746 w0\.fb1_I
*747 w0\.fb1_Q
*748 w0\.fb_block_I\.gs_f\.fb_gray_selector_loop\[0\]\.dl\.d
*749 w0\.fb_block_I\.gs_f\.fb_gray_selector_loop\[0\]\.eff3\.d1
*750 w0\.fb_block_I\.gs_f\.fb_gray_selector_loop\[0\]\.eff3\.d2
*751 w0\.fb_block_I\.gs_f\.fb_gray_selector_loop\[0\]\.eff3\.dff\.q
*752 w0\.fb_block_I\.gs_f\.fb_gray_selector_loop\[0\]\.eff3\.dff_n\.q
*753 w0\.fb_block_I\.gs_f\.fb_gray_selector_loop\[0\]\.t_buf\.ctrlb
*754 w0\.fb_block_I\.gs_f\.fb_gray_selector_loop\[0\]\.t_buf\.in
*755 w0\.fb_block_I\.gs_f\.fb_gray_selector_loop\[1\]\.eff3\.d1
*756 w0\.fb_block_I\.gs_f\.fb_gray_selector_loop\[1\]\.eff3\.d2
*757 w0\.fb_block_I\.gs_f\.fb_gray_selector_loop\[1\]\.eff3\.dff\.q
*758 w0\.fb_block_I\.gs_f\.fb_gray_selector_loop\[1\]\.eff3\.dff_n\.q
*759 w0\.fb_block_I\.gs_f\.fb_gray_selector_loop\[1\]\.t_buf\.ctrlb
*760 w0\.fb_block_I\.gs_f\.fb_gray_selector_loop\[1\]\.t_buf\.in
*761 w0\.fb_block_I\.gs_f\.fb_gray_selector_loop\[2\]\.eff3\.d1
*762 w0\.fb_block_I\.gs_f\.fb_gray_selector_loop\[2\]\.eff3\.d2
*763 w0\.fb_block_I\.gs_f\.fb_gray_selector_loop\[2\]\.eff3\.dff\.q
*764 w0\.fb_block_I\.gs_f\.fb_gray_selector_loop\[2\]\.eff3\.dff_n\.q
*765 w0\.fb_block_I\.gs_f\.fb_gray_selector_loop\[2\]\.t_buf\.ctrlb
*766 w0\.fb_block_I\.gs_f\.fb_gray_selector_loop\[2\]\.t_buf\.in
*767 w0\.fb_block_I\.gs_f\.fb_gray_selector_loop\[3\]\.eff3\.d1
*768 w0\.fb_block_I\.gs_f\.fb_gray_selector_loop\[3\]\.eff3\.d2
*769 w0\.fb_block_I\.gs_f\.fb_gray_selector_loop\[3\]\.eff3\.dff\.q
*770 w0\.fb_block_I\.gs_f\.fb_gray_selector_loop\[3\]\.eff3\.dff_n\.q
*771 w0\.fb_block_I\.gs_f\.fb_gray_selector_loop\[3\]\.t_buf\.ctrlb
*772 w0\.fb_block_I\.gs_f\.fb_gray_selector_loop\[3\]\.t_buf\.in
*773 w0\.fb_block_I\.gs_f\.fb_gray_selector_loop\[4\]\.eff3\.d1
*774 w0\.fb_block_I\.gs_f\.fb_gray_selector_loop\[4\]\.eff3\.d2
*775 w0\.fb_block_I\.gs_f\.fb_gray_selector_loop\[4\]\.eff3\.dff\.q
*776 w0\.fb_block_I\.gs_f\.fb_gray_selector_loop\[4\]\.eff3\.dff_n\.q
*777 w0\.fb_block_I\.gs_f\.fb_gray_selector_loop\[4\]\.t_buf\.ctrlb
*778 w0\.fb_block_I\.gs_f\.fb_gray_selector_loop\[4\]\.t_buf\.in
*779 w0\.fb_block_I\.gs_f\.fb_gray_selector_loop\[5\]\.eff3\.d1
*780 w0\.fb_block_I\.gs_f\.fb_gray_selector_loop\[5\]\.eff3\.d2
*781 w0\.fb_block_I\.gs_f\.fb_gray_selector_loop\[5\]\.eff3\.dff\.q
*782 w0\.fb_block_I\.gs_f\.fb_gray_selector_loop\[5\]\.eff3\.dff_n\.q
*783 w0\.fb_block_I\.gs_f\.fb_gray_selector_loop\[5\]\.t_buf\.ctrlb
*784 w0\.fb_block_I\.gs_f\.fb_gray_selector_loop\[5\]\.t_buf\.in
*785 w0\.fb_block_I\.gs_f\.fb_gray_selector_loop\[6\]\.eff3\.d1
*786 w0\.fb_block_I\.gs_f\.fb_gray_selector_loop\[6\]\.eff3\.d2
*787 w0\.fb_block_I\.gs_f\.fb_gray_selector_loop\[6\]\.eff3\.dff\.q
*788 w0\.fb_block_I\.gs_f\.fb_gray_selector_loop\[6\]\.eff3\.dff_n\.q
*789 w0\.fb_block_I\.gs_f\.fb_gray_selector_loop\[6\]\.t_buf\.ctrlb
*790 w0\.fb_block_I\.gs_f\.fb_gray_selector_loop\[6\]\.t_buf\.in
*791 w0\.fb_block_I\.gs_f\.fb_gray_selector_loop\[7\]\.eff3\.d1
*792 w0\.fb_block_I\.gs_f\.fb_gray_selector_loop\[7\]\.eff3\.d2
*793 w0\.fb_block_I\.gs_f\.fb_gray_selector_loop\[7\]\.eff3\.dff\.q
*794 w0\.fb_block_I\.gs_f\.fb_gray_selector_loop\[7\]\.eff3\.dff_n\.q
*795 w0\.fb_block_I\.gs_f\.fb_gray_selector_loop\[7\]\.t_buf\.ctrlb
*796 w0\.fb_block_I\.gs_f\.fb_gray_selector_loop\[7\]\.t_buf\.in
*797 w0\.fb_block_I\.gs_f\.fb_gray_selector_loop\[8\]\.eff3\.d1
*798 w0\.fb_block_I\.gs_f\.fb_gray_selector_loop\[8\]\.eff3\.d2
*799 w0\.fb_block_I\.gs_f\.fb_gray_selector_loop\[8\]\.eff3\.dff\.q
*800 w0\.fb_block_I\.gs_f\.fb_gray_selector_loop\[8\]\.eff3\.dff_n\.q
*801 w0\.fb_block_I\.gs_f\.fb_gray_selector_loop\[8\]\.t_buf\.ctrlb
*802 w0\.fb_block_I\.gs_f\.fb_gray_selector_loop\[8\]\.t_buf\.in
*803 w0\.fb_block_I\.gs_f\.fb_gray_selector_loop\[9\]\.eff3\.d1
*804 w0\.fb_block_I\.gs_f\.fb_gray_selector_loop\[9\]\.eff3\.d2
*805 w0\.fb_block_I\.gs_f\.fb_gray_selector_loop\[9\]\.eff3\.dff\.q
*806 w0\.fb_block_I\.gs_f\.fb_gray_selector_loop\[9\]\.eff3\.dff_n\.q
*807 w0\.fb_block_I\.gs_f\.fb_gray_selector_loop\[9\]\.t_buf\.ctrlb
*808 w0\.fb_block_I\.gs_f\.fb_gray_selector_loop\[9\]\.t_buf\.in
*809 w0\.fb_block_I\.ud_c\.bin_counter\[0\]\.cc\.q
*810 w0\.fb_block_I\.ud_c\.bin_counter\[0\]\.cc\.tff1\.d
*811 w0\.fb_block_I\.ud_c\.bin_counter\[10\]\.cc\.tff1\.d
*812 w0\.fb_block_I\.ud_c\.bin_counter\[11\]\.cc\.tff1\.d
*813 w0\.fb_block_I\.ud_c\.bin_counter\[12\]\.cc\.tff1\.d
*814 w0\.fb_block_I\.ud_c\.bin_counter\[13\]\.cc\.tff1\.d
*815 w0\.fb_block_I\.ud_c\.bin_counter\[1\]\.cc\.q
*816 w0\.fb_block_I\.ud_c\.bin_counter\[1\]\.cc\.tff1\.d
*817 w0\.fb_block_I\.ud_c\.bin_counter\[2\]\.cc\.q
*818 w0\.fb_block_I\.ud_c\.bin_counter\[2\]\.cc\.tff1\.d
*819 w0\.fb_block_I\.ud_c\.bin_counter\[3\]\.cc\.q
*820 w0\.fb_block_I\.ud_c\.bin_counter\[3\]\.cc\.tff1\.d
*821 w0\.fb_block_I\.ud_c\.bin_counter\[4\]\.cc\.q
*822 w0\.fb_block_I\.ud_c\.bin_counter\[4\]\.cc\.tff1\.d
*823 w0\.fb_block_I\.ud_c\.bin_counter\[5\]\.cc\.tff1\.d
*824 w0\.fb_block_I\.ud_c\.bin_counter\[6\]\.cc\.tff1\.d
*825 w0\.fb_block_I\.ud_c\.bin_counter\[7\]\.cc\.tff1\.d
*826 w0\.fb_block_I\.ud_c\.bin_counter\[8\]\.cc\.tff1\.d
*827 w0\.fb_block_I\.ud_c\.bin_counter\[9\]\.cc\.tff1\.d
*828 w0\.fb_block_I\.ud_c\.cc1\.q
*829 w0\.fb_block_I\.ud_c\.cc1\.tff1\.d
*830 w0\.fb_block_I\.ud_c\.tff_end\.d
*831 w0\.fb_block_Q\.gs_f\.fb_gray_selector_loop\[0\]\.dl\.d
*832 w0\.fb_block_Q\.gs_f\.fb_gray_selector_loop\[0\]\.eff3\.d1
*833 w0\.fb_block_Q\.gs_f\.fb_gray_selector_loop\[0\]\.eff3\.d2
*834 w0\.fb_block_Q\.gs_f\.fb_gray_selector_loop\[0\]\.eff3\.dff\.q
*835 w0\.fb_block_Q\.gs_f\.fb_gray_selector_loop\[0\]\.eff3\.dff_n\.q
*836 w0\.fb_block_Q\.gs_f\.fb_gray_selector_loop\[0\]\.t_buf\.ctrlb
*837 w0\.fb_block_Q\.gs_f\.fb_gray_selector_loop\[0\]\.t_buf\.in
*838 w0\.fb_block_Q\.gs_f\.fb_gray_selector_loop\[1\]\.eff3\.d1
*839 w0\.fb_block_Q\.gs_f\.fb_gray_selector_loop\[1\]\.eff3\.d2
*840 w0\.fb_block_Q\.gs_f\.fb_gray_selector_loop\[1\]\.eff3\.dff\.q
*841 w0\.fb_block_Q\.gs_f\.fb_gray_selector_loop\[1\]\.eff3\.dff_n\.q
*842 w0\.fb_block_Q\.gs_f\.fb_gray_selector_loop\[1\]\.t_buf\.ctrlb
*843 w0\.fb_block_Q\.gs_f\.fb_gray_selector_loop\[1\]\.t_buf\.in
*844 w0\.fb_block_Q\.gs_f\.fb_gray_selector_loop\[2\]\.eff3\.d1
*845 w0\.fb_block_Q\.gs_f\.fb_gray_selector_loop\[2\]\.eff3\.d2
*846 w0\.fb_block_Q\.gs_f\.fb_gray_selector_loop\[2\]\.eff3\.dff\.q
*847 w0\.fb_block_Q\.gs_f\.fb_gray_selector_loop\[2\]\.eff3\.dff_n\.q
*848 w0\.fb_block_Q\.gs_f\.fb_gray_selector_loop\[2\]\.t_buf\.ctrlb
*849 w0\.fb_block_Q\.gs_f\.fb_gray_selector_loop\[2\]\.t_buf\.in
*850 w0\.fb_block_Q\.gs_f\.fb_gray_selector_loop\[3\]\.eff3\.d1
*851 w0\.fb_block_Q\.gs_f\.fb_gray_selector_loop\[3\]\.eff3\.d2
*852 w0\.fb_block_Q\.gs_f\.fb_gray_selector_loop\[3\]\.eff3\.dff\.q
*853 w0\.fb_block_Q\.gs_f\.fb_gray_selector_loop\[3\]\.eff3\.dff_n\.q
*854 w0\.fb_block_Q\.gs_f\.fb_gray_selector_loop\[3\]\.t_buf\.ctrlb
*855 w0\.fb_block_Q\.gs_f\.fb_gray_selector_loop\[3\]\.t_buf\.in
*856 w0\.fb_block_Q\.gs_f\.fb_gray_selector_loop\[4\]\.eff3\.d1
*857 w0\.fb_block_Q\.gs_f\.fb_gray_selector_loop\[4\]\.eff3\.d2
*858 w0\.fb_block_Q\.gs_f\.fb_gray_selector_loop\[4\]\.eff3\.dff\.q
*859 w0\.fb_block_Q\.gs_f\.fb_gray_selector_loop\[4\]\.eff3\.dff_n\.q
*860 w0\.fb_block_Q\.gs_f\.fb_gray_selector_loop\[4\]\.t_buf\.ctrlb
*861 w0\.fb_block_Q\.gs_f\.fb_gray_selector_loop\[4\]\.t_buf\.in
*862 w0\.fb_block_Q\.gs_f\.fb_gray_selector_loop\[5\]\.eff3\.d1
*863 w0\.fb_block_Q\.gs_f\.fb_gray_selector_loop\[5\]\.eff3\.d2
*864 w0\.fb_block_Q\.gs_f\.fb_gray_selector_loop\[5\]\.eff3\.dff\.q
*865 w0\.fb_block_Q\.gs_f\.fb_gray_selector_loop\[5\]\.eff3\.dff_n\.q
*866 w0\.fb_block_Q\.gs_f\.fb_gray_selector_loop\[5\]\.t_buf\.ctrlb
*867 w0\.fb_block_Q\.gs_f\.fb_gray_selector_loop\[5\]\.t_buf\.in
*868 w0\.fb_block_Q\.gs_f\.fb_gray_selector_loop\[6\]\.eff3\.d1
*869 w0\.fb_block_Q\.gs_f\.fb_gray_selector_loop\[6\]\.eff3\.d2
*870 w0\.fb_block_Q\.gs_f\.fb_gray_selector_loop\[6\]\.eff3\.dff\.q
*871 w0\.fb_block_Q\.gs_f\.fb_gray_selector_loop\[6\]\.eff3\.dff_n\.q
*872 w0\.fb_block_Q\.gs_f\.fb_gray_selector_loop\[6\]\.t_buf\.ctrlb
*873 w0\.fb_block_Q\.gs_f\.fb_gray_selector_loop\[6\]\.t_buf\.in
*874 w0\.fb_block_Q\.gs_f\.fb_gray_selector_loop\[7\]\.eff3\.d1
*875 w0\.fb_block_Q\.gs_f\.fb_gray_selector_loop\[7\]\.eff3\.d2
*876 w0\.fb_block_Q\.gs_f\.fb_gray_selector_loop\[7\]\.eff3\.dff\.q
*877 w0\.fb_block_Q\.gs_f\.fb_gray_selector_loop\[7\]\.eff3\.dff_n\.q
*878 w0\.fb_block_Q\.gs_f\.fb_gray_selector_loop\[7\]\.t_buf\.ctrlb
*879 w0\.fb_block_Q\.gs_f\.fb_gray_selector_loop\[7\]\.t_buf\.in
*880 w0\.fb_block_Q\.gs_f\.fb_gray_selector_loop\[8\]\.eff3\.d1
*881 w0\.fb_block_Q\.gs_f\.fb_gray_selector_loop\[8\]\.eff3\.d2
*882 w0\.fb_block_Q\.gs_f\.fb_gray_selector_loop\[8\]\.eff3\.dff\.q
*883 w0\.fb_block_Q\.gs_f\.fb_gray_selector_loop\[8\]\.eff3\.dff_n\.q
*884 w0\.fb_block_Q\.gs_f\.fb_gray_selector_loop\[8\]\.t_buf\.ctrlb
*885 w0\.fb_block_Q\.gs_f\.fb_gray_selector_loop\[8\]\.t_buf\.in
*886 w0\.fb_block_Q\.gs_f\.fb_gray_selector_loop\[9\]\.eff3\.d1
*887 w0\.fb_block_Q\.gs_f\.fb_gray_selector_loop\[9\]\.eff3\.d2
*888 w0\.fb_block_Q\.gs_f\.fb_gray_selector_loop\[9\]\.eff3\.dff\.q
*889 w0\.fb_block_Q\.gs_f\.fb_gray_selector_loop\[9\]\.eff3\.dff_n\.q
*890 w0\.fb_block_Q\.gs_f\.fb_gray_selector_loop\[9\]\.t_buf\.ctrlb
*891 w0\.fb_block_Q\.gs_f\.fb_gray_selector_loop\[9\]\.t_buf\.in
*892 w0\.fb_block_Q\.ud_c\.bin_counter\[0\]\.cc\.q
*893 w0\.fb_block_Q\.ud_c\.bin_counter\[0\]\.cc\.tff1\.d
*894 w0\.fb_block_Q\.ud_c\.bin_counter\[10\]\.cc\.tff1\.d
*895 w0\.fb_block_Q\.ud_c\.bin_counter\[11\]\.cc\.tff1\.d
*896 w0\.fb_block_Q\.ud_c\.bin_counter\[12\]\.cc\.tff1\.d
*897 w0\.fb_block_Q\.ud_c\.bin_counter\[13\]\.cc\.tff1\.d
*898 w0\.fb_block_Q\.ud_c\.bin_counter\[1\]\.cc\.q
*899 w0\.fb_block_Q\.ud_c\.bin_counter\[1\]\.cc\.tff1\.d
*900 w0\.fb_block_Q\.ud_c\.bin_counter\[2\]\.cc\.q
*901 w0\.fb_block_Q\.ud_c\.bin_counter\[2\]\.cc\.tff1\.d
*902 w0\.fb_block_Q\.ud_c\.bin_counter\[3\]\.cc\.q
*903 w0\.fb_block_Q\.ud_c\.bin_counter\[3\]\.cc\.tff1\.d
*904 w0\.fb_block_Q\.ud_c\.bin_counter\[4\]\.cc\.q
*905 w0\.fb_block_Q\.ud_c\.bin_counter\[4\]\.cc\.tff1\.d
*906 w0\.fb_block_Q\.ud_c\.bin_counter\[5\]\.cc\.tff1\.d
*907 w0\.fb_block_Q\.ud_c\.bin_counter\[6\]\.cc\.tff1\.d
*908 w0\.fb_block_Q\.ud_c\.bin_counter\[7\]\.cc\.tff1\.d
*909 w0\.fb_block_Q\.ud_c\.bin_counter\[8\]\.cc\.tff1\.d
*910 w0\.fb_block_Q\.ud_c\.bin_counter\[9\]\.cc\.tff1\.d
*911 w0\.fb_block_Q\.ud_c\.cc1\.q
*912 w0\.fb_block_Q\.ud_c\.cc1\.tff1\.d
*913 w0\.fb_block_Q\.ud_c\.tff_end\.d
*914 w0\.gray_gen\.cell2\.eff_gray\.d1
*915 w0\.gray_gen\.cell2\.eff_gray\.d2
*916 w0\.gray_gen\.cell2\.eff_gray\.dff\.q
*917 w0\.gray_gen\.cell2\.eff_gray\.dff_n\.q
*918 w0\.gray_gen\.first_gray\.eff\.d1
*919 w0\.gray_gen\.first_gray\.eff\.d2
*920 w0\.gray_gen\.first_gray\.eff\.dff\.q
*921 w0\.gray_gen\.first_gray\.eff\.dff_n\.q
*922 w0\.gray_gen\.first_gray\.t_ff\.eff_gray\.d1
*923 w0\.gray_gen\.first_gray\.t_ff\.eff_gray\.d2
*924 w0\.gray_gen\.first_gray\.t_ff\.eff_gray\.dff\.q
*925 w0\.gray_gen\.first_gray\.t_ff\.eff_gray\.dff_n\.q
*926 w0\.gray_gen\.gray_loop\[1\]\.gray\.eff_gray\.d1
*927 w0\.gray_gen\.gray_loop\[1\]\.gray\.eff_gray\.d2
*928 w0\.gray_gen\.gray_loop\[1\]\.gray\.eff_gray\.dff\.q
*929 w0\.gray_gen\.gray_loop\[1\]\.gray\.eff_gray\.dff_n\.q
*930 w0\.gray_gen\.gray_loop\[2\]\.gray\.eff_gray\.d1
*931 w0\.gray_gen\.gray_loop\[2\]\.gray\.eff_gray\.d2
*932 w0\.gray_gen\.gray_loop\[2\]\.gray\.eff_gray\.dff\.q
*933 w0\.gray_gen\.gray_loop\[2\]\.gray\.eff_gray\.dff_n\.q
*934 w0\.gray_gen\.gray_loop\[3\]\.gray\.eff_gray\.d1
*935 w0\.gray_gen\.gray_loop\[3\]\.gray\.eff_gray\.d2
*936 w0\.gray_gen\.gray_loop\[3\]\.gray\.eff_gray\.dff\.q
*937 w0\.gray_gen\.gray_loop\[3\]\.gray\.eff_gray\.dff_n\.q
*938 w0\.gray_gen\.gray_loop\[4\]\.gray\.eff_gray\.d1
*939 w0\.gray_gen\.gray_loop\[4\]\.gray\.eff_gray\.d2
*940 w0\.gray_gen\.gray_loop\[4\]\.gray\.eff_gray\.dff\.q
*941 w0\.gray_gen\.gray_loop\[4\]\.gray\.eff_gray\.dff_n\.q
*942 w0\.gray_gen\.gray_loop\[5\]\.gray\.eff_gray\.d1
*943 w0\.gray_gen\.gray_loop\[5\]\.gray\.eff_gray\.d2
*944 w0\.gray_gen\.gray_loop\[5\]\.gray\.eff_gray\.dff\.q
*945 w0\.gray_gen\.gray_loop\[5\]\.gray\.eff_gray\.dff_n\.q
*946 w0\.gray_gen\.gray_loop\[5\]\.gray\.inv_out
*947 w0\.gray_gen\.gray_loop\[6\]\.gray\.eff_gray\.d1
*948 w0\.gray_gen\.gray_loop\[6\]\.gray\.eff_gray\.d2
*949 w0\.gray_gen\.gray_loop\[6\]\.gray\.eff_gray\.dff\.q
*950 w0\.gray_gen\.gray_loop\[6\]\.gray\.eff_gray\.dff_n\.q
*951 w0\.gray_gen\.gray_loop\[6\]\.gray\.inv_out
*952 w0\.gray_gen\.gray_loop\[7\]\.gray\.eff_gray\.d1
*953 w0\.gray_gen\.gray_loop\[7\]\.gray\.eff_gray\.d2
*954 w0\.gray_gen\.gray_loop\[7\]\.gray\.eff_gray\.dff\.q
*955 w0\.gray_gen\.gray_loop\[7\]\.gray\.eff_gray\.dff_n\.q
*956 w0\.gray_gen\.gray_loop\[7\]\.gray\.inv_out
*957 w0\.gray_gen\.gray_loop\[8\]\.gray\.eff_gray\.d1
*958 w0\.gray_gen\.gray_loop\[8\]\.gray\.eff_gray\.d2
*959 w0\.gray_gen\.gray_loop\[8\]\.gray\.eff_gray\.dff\.q
*960 w0\.gray_gen\.gray_loop\[8\]\.gray\.eff_gray\.dff_n\.q
*961 w0\.gray_gen\.gray_loop\[8\]\.gray\.inv_out
*962 w0\.gray_gen\.gray_loop\[9\]\.gray\.eff_gray\.d1
*963 w0\.gray_gen\.gray_loop\[9\]\.gray\.eff_gray\.d2
*964 w0\.gray_gen\.gray_loop\[9\]\.gray\.eff_gray\.dff\.q
*965 w0\.gray_gen\.gray_loop\[9\]\.gray\.eff_gray\.dff_n\.q
*966 w0\.gray_gen\.sine_cell\.eff_gray\.d1
*967 w0\.gray_gen\.sine_cell\.eff_gray\.d2
*968 w0\.gray_gen\.sine_cell\.eff_gray\.dff\.q
*969 w0\.gray_gen\.sine_cell\.eff_gray\.dff_n\.q
*970 w0\.ro_block_I\.out_mux_eve
*971 w0\.ro_block_I\.out_mux_pol_eve
*972 w0\.ro_block_I\.ro_pol\.eff\.eff_gray\.d1
*973 w0\.ro_block_I\.ro_pol\.eff\.eff_gray\.d2
*974 w0\.ro_block_I\.ro_pol\.eff\.eff_gray\.dff\.q
*975 w0\.ro_block_I\.ro_pol\.eff\.eff_gray\.dff_n\.q
*976 w0\.ro_block_I\.ro_pol\.eff_outb
*977 w0\.ro_block_I\.ro_pol_eve\.eff\.eff_gray\.d1
*978 w0\.ro_block_I\.ro_pol_eve\.eff\.eff_gray\.d2
*979 w0\.ro_block_I\.ro_pol_eve\.eff\.eff_gray\.dff\.q
*980 w0\.ro_block_I\.ro_pol_eve\.eff\.eff_gray\.dff_n\.q
*981 w0\.ro_block_I\.ro_pol_eve\.eff_outb
*982 w0\.ro_block_Q\.out_mux_eve
*983 w0\.ro_block_Q\.out_mux_pol_eve
*984 w0\.ro_block_Q\.ro_pol\.eff\.eff_gray\.d1
*985 w0\.ro_block_Q\.ro_pol\.eff\.eff_gray\.d2
*986 w0\.ro_block_Q\.ro_pol\.eff\.eff_gray\.dff\.q
*987 w0\.ro_block_Q\.ro_pol\.eff\.eff_gray\.dff_n\.q
*988 w0\.ro_block_Q\.ro_pol\.eff_outb
*989 w0\.ro_block_Q\.ro_pol_eve\.eff\.eff_gray\.d1
*990 w0\.ro_block_Q\.ro_pol_eve\.eff\.eff_gray\.d2
*991 w0\.ro_block_Q\.ro_pol_eve\.eff\.eff_gray\.dff\.q
*992 w0\.ro_block_Q\.ro_pol_eve\.eff\.eff_gray\.dff_n\.q
*993 w0\.ro_block_Q\.ro_pol_eve\.eff_outb
*994 wrapper_cell_loop\[0\]\.w1\.POL_EVE_I\.comp_out
*995 wrapper_cell_loop\[0\]\.w1\.POL_EVE_I\.dff1\.q
*996 wrapper_cell_loop\[0\]\.w1\.POL_EVE_I\.dff2\.q
*997 wrapper_cell_loop\[0\]\.w1\.POL_EVE_I\.dff3\.q
*998 wrapper_cell_loop\[0\]\.w1\.POL_EVE_I\.eve
*999 wrapper_cell_loop\[0\]\.w1\.POL_EVE_I\.polxevent
*1000 wrapper_cell_loop\[0\]\.w1\.POL_EVE_Q\.comp_out
*1001 wrapper_cell_loop\[0\]\.w1\.POL_EVE_Q\.dff1\.q
*1002 wrapper_cell_loop\[0\]\.w1\.POL_EVE_Q\.dff2\.q
*1003 wrapper_cell_loop\[0\]\.w1\.POL_EVE_Q\.dff3\.q
*1004 wrapper_cell_loop\[0\]\.w1\.POL_EVE_Q\.eve
*1005 wrapper_cell_loop\[0\]\.w1\.POL_EVE_Q\.polxevent
*1006 wrapper_cell_loop\[0\]\.w1\.bank1\.cos_out
*1007 wrapper_cell_loop\[0\]\.w1\.bank1\.sin_out
*1008 wrapper_cell_loop\[0\]\.w1\.cclk_I
*1009 wrapper_cell_loop\[0\]\.w1\.div2\.dff\.d
*1010 wrapper_cell_loop\[0\]\.w1\.div2\.dff\.q
*1011 wrapper_cell_loop\[0\]\.w1\.fb1_I
*1012 wrapper_cell_loop\[0\]\.w1\.fb1_Q
*1013 wrapper_cell_loop\[0\]\.w1\.fb_block_I\.gs_f\.fb_gray_selector_loop\[0\]\.dl\.d
*1014 wrapper_cell_loop\[0\]\.w1\.fb_block_I\.gs_f\.fb_gray_selector_loop\[0\]\.eff3\.d1
*1015 wrapper_cell_loop\[0\]\.w1\.fb_block_I\.gs_f\.fb_gray_selector_loop\[0\]\.eff3\.d2
*1016 wrapper_cell_loop\[0\]\.w1\.fb_block_I\.gs_f\.fb_gray_selector_loop\[0\]\.eff3\.dff\.q
*1017 wrapper_cell_loop\[0\]\.w1\.fb_block_I\.gs_f\.fb_gray_selector_loop\[0\]\.eff3\.dff_n\.q
*1018 wrapper_cell_loop\[0\]\.w1\.fb_block_I\.gs_f\.fb_gray_selector_loop\[0\]\.t_buf\.ctrlb
*1019 wrapper_cell_loop\[0\]\.w1\.fb_block_I\.gs_f\.fb_gray_selector_loop\[0\]\.t_buf\.in
*1020 wrapper_cell_loop\[0\]\.w1\.fb_block_I\.gs_f\.fb_gray_selector_loop\[1\]\.eff3\.d1
*1021 wrapper_cell_loop\[0\]\.w1\.fb_block_I\.gs_f\.fb_gray_selector_loop\[1\]\.eff3\.d2
*1022 wrapper_cell_loop\[0\]\.w1\.fb_block_I\.gs_f\.fb_gray_selector_loop\[1\]\.eff3\.dff\.q
*1023 wrapper_cell_loop\[0\]\.w1\.fb_block_I\.gs_f\.fb_gray_selector_loop\[1\]\.eff3\.dff_n\.q
*1024 wrapper_cell_loop\[0\]\.w1\.fb_block_I\.gs_f\.fb_gray_selector_loop\[1\]\.t_buf\.ctrlb
*1025 wrapper_cell_loop\[0\]\.w1\.fb_block_I\.gs_f\.fb_gray_selector_loop\[1\]\.t_buf\.in
*1026 wrapper_cell_loop\[0\]\.w1\.fb_block_I\.gs_f\.fb_gray_selector_loop\[2\]\.eff3\.d1
*1027 wrapper_cell_loop\[0\]\.w1\.fb_block_I\.gs_f\.fb_gray_selector_loop\[2\]\.eff3\.d2
*1028 wrapper_cell_loop\[0\]\.w1\.fb_block_I\.gs_f\.fb_gray_selector_loop\[2\]\.eff3\.dff\.q
*1029 wrapper_cell_loop\[0\]\.w1\.fb_block_I\.gs_f\.fb_gray_selector_loop\[2\]\.eff3\.dff_n\.q
*1030 wrapper_cell_loop\[0\]\.w1\.fb_block_I\.gs_f\.fb_gray_selector_loop\[2\]\.t_buf\.ctrlb
*1031 wrapper_cell_loop\[0\]\.w1\.fb_block_I\.gs_f\.fb_gray_selector_loop\[2\]\.t_buf\.in
*1032 wrapper_cell_loop\[0\]\.w1\.fb_block_I\.gs_f\.fb_gray_selector_loop\[3\]\.eff3\.d1
*1033 wrapper_cell_loop\[0\]\.w1\.fb_block_I\.gs_f\.fb_gray_selector_loop\[3\]\.eff3\.d2
*1034 wrapper_cell_loop\[0\]\.w1\.fb_block_I\.gs_f\.fb_gray_selector_loop\[3\]\.eff3\.dff\.q
*1035 wrapper_cell_loop\[0\]\.w1\.fb_block_I\.gs_f\.fb_gray_selector_loop\[3\]\.eff3\.dff_n\.q
*1036 wrapper_cell_loop\[0\]\.w1\.fb_block_I\.gs_f\.fb_gray_selector_loop\[3\]\.t_buf\.ctrlb
*1037 wrapper_cell_loop\[0\]\.w1\.fb_block_I\.gs_f\.fb_gray_selector_loop\[3\]\.t_buf\.in
*1038 wrapper_cell_loop\[0\]\.w1\.fb_block_I\.gs_f\.fb_gray_selector_loop\[4\]\.eff3\.d1
*1039 wrapper_cell_loop\[0\]\.w1\.fb_block_I\.gs_f\.fb_gray_selector_loop\[4\]\.eff3\.d2
*1040 wrapper_cell_loop\[0\]\.w1\.fb_block_I\.gs_f\.fb_gray_selector_loop\[4\]\.eff3\.dff\.q
*1041 wrapper_cell_loop\[0\]\.w1\.fb_block_I\.gs_f\.fb_gray_selector_loop\[4\]\.eff3\.dff_n\.q
*1042 wrapper_cell_loop\[0\]\.w1\.fb_block_I\.gs_f\.fb_gray_selector_loop\[4\]\.t_buf\.ctrlb
*1043 wrapper_cell_loop\[0\]\.w1\.fb_block_I\.gs_f\.fb_gray_selector_loop\[4\]\.t_buf\.in
*1044 wrapper_cell_loop\[0\]\.w1\.fb_block_I\.gs_f\.fb_gray_selector_loop\[5\]\.eff3\.d1
*1045 wrapper_cell_loop\[0\]\.w1\.fb_block_I\.gs_f\.fb_gray_selector_loop\[5\]\.eff3\.d2
*1046 wrapper_cell_loop\[0\]\.w1\.fb_block_I\.gs_f\.fb_gray_selector_loop\[5\]\.eff3\.dff\.q
*1047 wrapper_cell_loop\[0\]\.w1\.fb_block_I\.gs_f\.fb_gray_selector_loop\[5\]\.eff3\.dff_n\.q
*1048 wrapper_cell_loop\[0\]\.w1\.fb_block_I\.gs_f\.fb_gray_selector_loop\[5\]\.t_buf\.ctrlb
*1049 wrapper_cell_loop\[0\]\.w1\.fb_block_I\.gs_f\.fb_gray_selector_loop\[5\]\.t_buf\.in
*1050 wrapper_cell_loop\[0\]\.w1\.fb_block_I\.gs_f\.fb_gray_selector_loop\[6\]\.eff3\.d1
*1051 wrapper_cell_loop\[0\]\.w1\.fb_block_I\.gs_f\.fb_gray_selector_loop\[6\]\.eff3\.d2
*1052 wrapper_cell_loop\[0\]\.w1\.fb_block_I\.gs_f\.fb_gray_selector_loop\[6\]\.eff3\.dff\.q
*1053 wrapper_cell_loop\[0\]\.w1\.fb_block_I\.gs_f\.fb_gray_selector_loop\[6\]\.eff3\.dff_n\.q
*1054 wrapper_cell_loop\[0\]\.w1\.fb_block_I\.gs_f\.fb_gray_selector_loop\[6\]\.t_buf\.ctrlb
*1055 wrapper_cell_loop\[0\]\.w1\.fb_block_I\.gs_f\.fb_gray_selector_loop\[6\]\.t_buf\.in
*1056 wrapper_cell_loop\[0\]\.w1\.fb_block_I\.gs_f\.fb_gray_selector_loop\[7\]\.eff3\.d1
*1057 wrapper_cell_loop\[0\]\.w1\.fb_block_I\.gs_f\.fb_gray_selector_loop\[7\]\.eff3\.d2
*1058 wrapper_cell_loop\[0\]\.w1\.fb_block_I\.gs_f\.fb_gray_selector_loop\[7\]\.eff3\.dff\.q