*SPEF "ieee 1481-1999"
*DESIGN "digital_unison"
*DATE "11:11:11 Fri 11 11, 1111"
*VENDOR "OpenRCX"
*PROGRAM "Parallel Extraction"
*VERSION "1.0"
*DESIGN_FLOW "NAME_SCOPE LOCAL" "PIN_CAP NONE"
*DIVIDER /
*DELIMITER :
*BUS_DELIMITER []
*T_UNIT 1 NS
*C_UNIT 1 PF
*R_UNIT 1 OHM
*L_UNIT 1 HENRY

*NAME_MAP
*1 cclk_I[0]
*2 cclk_I[1]
*3 cclk_Q[0]
*4 cclk_Q[1]
*5 clk_master
*6 clkdiv2_I[0]
*7 clkdiv2_I[1]
*8 clkdiv2_Q[0]
*9 clkdiv2_Q[1]
*10 comp_high_I[0]
*11 comp_high_I[1]
*12 comp_high_Q[0]
*13 comp_high_Q[1]
*14 cos_out[0]
*15 cos_out[1]
*16 cos_outb[0]
*17 cos_outb[1]
*18 fb1_I[0]
*19 fb1_I[1]
*20 fb1_Q[0]
*21 fb1_Q[1]
*22 fb2_I[0]
*23 fb2_I[1]
*24 fb2_Q[0]
*25 fb2_Q[1]
*26 phi1b_dig_I[0]
*27 phi1b_dig_I[1]
*28 phi1b_dig_Q[0]
*29 phi1b_dig_Q[1]
*30 read_out_I[0]
*31 read_out_I[1]
*32 read_out_Q[0]
*33 read_out_Q[1]
*34 rstb
*35 sin_out[0]
*36 sin_out[1]
*37 sin_outb[0]
*38 sin_outb[1]
*39 ud_en
*42 _0000_
*43 _0001_
*44 _0002_
*45 _0003_
*46 _0004_
*47 _0005_
*48 _0006_
*49 _0007_
*50 _0023_
*51 _0026_
*52 _0029_
*53 _0032_
*54 _0033_
*55 _0034_
*56 _0035_
*57 _0036_
*58 _0037_
*59 _0038_
*60 _0039_
*61 _0040_
*62 _0041_
*63 _0042_
*64 _0043_
*65 _0044_
*66 _0045_
*67 _0046_
*68 _0047_
*69 _0048_
*70 _0049_
*71 _0050_
*72 _0051_
*73 _0052_
*74 _0053_
*75 _0054_
*76 _0055_
*77 _0056_
*78 _0057_
*79 _0058_
*80 _0059_
*81 _0060_
*82 _0061_
*83 _0062_
*84 _0063_
*85 _0064_
*86 _0065_
*87 _0066_
*88 _0067_
*89 _0068_
*90 _0069_
*91 _0070_
*92 _0071_
*93 _0072_
*94 _0073_
*95 _0074_
*96 _0075_
*97 _0076_
*98 _0077_
*99 _0078_
*100 _0079_
*101 _0080_
*102 _0081_
*103 _0082_
*104 _0083_
*105 _0084_
*106 _0085_
*107 _0086_
*108 _0087_
*109 _0088_
*110 _0089_
*111 _0090_
*112 _0091_
*113 _0092_
*114 _0093_
*115 _0096_
*116 _0097_
*117 _0098_
*118 _0099_
*119 _0102_
*120 _0105_
*121 _0108_
*122 _0110_
*123 _0113_
*124 _0116_
*125 _0119_
*126 _0123_
*127 _0126_
*128 _0129_
*129 _0132_
*130 _0135_
*131 _0138_
*132 _0140_
*133 _0143_
*134 _0146_
*135 _0149_
*136 _0153_
*137 _0156_
*138 _0159_
*139 _0161_
*140 _0162_
*141 _0163_
*142 _0164_
*143 _0165_
*144 _0166_
*145 _0167_
*146 _0168_
*147 _0169_
*148 _0170_
*149 _0171_
*150 _0172_
*151 _0173_
*152 _0174_
*153 _0175_
*154 _0176_
*155 _0177_
*156 _0178_
*157 _0179_
*158 _0180_
*159 _0181_
*160 _0182_
*161 _0183_
*162 _0184_
*163 _0185_
*164 _0186_
*165 _0187_
*166 _0188_
*167 _0189_
*168 _0190_
*169 _0191_
*170 _0192_
*171 _0193_
*172 _0194_
*173 _0195_
*174 _0196_
*175 _0197_
*176 _0198_
*177 _0199_
*178 _0200_
*179 _0201_
*180 _0202_
*181 _0203_
*182 _0204_
*183 _0205_
*184 _0206_
*185 _0207_
*186 _0208_
*187 _0209_
*188 _0210_
*189 _0211_
*190 _0212_
*191 _0213_
*192 _0214_
*193 _0215_
*194 _0216_
*195 _0217_
*196 _0218_
*197 _0219_
*198 _0220_
*199 _0221_
*200 _0222_
*201 _0223_
*202 _0224_
*203 _0225_
*204 _0226_
*205 _0227_
*206 _0228_
*207 _0229_
*208 _0230_
*209 _0231_
*210 _0232_
*211 _0233_
*212 _0234_
*213 _0235_
*214 _0236_
*215 _0237_
*216 _0238_
*217 _0239_
*218 _0240_
*219 _0241_
*220 _0242_
*221 _0243_
*222 _0244_
*223 _0245_
*224 _0246_
*225 _0247_
*226 _0248_
*227 _0249_
*228 _0250_
*229 _0251_
*230 _0252_
*231 _0253_
*232 _0254_
*233 _0255_
*234 _0256_
*235 _0257_
*236 _0258_
*237 _0259_
*238 _0260_
*239 _0261_
*240 _0262_
*241 _0263_
*242 _0264_
*243 _0265_
*244 _0266_
*245 _0267_
*246 _0268_
*247 _0269_
*248 _0270_
*249 _0271_
*250 _0272_
*251 _0273_
*252 _0274_
*253 _0275_
*254 _0276_
*255 _0277_
*256 _0278_
*257 _0279_
*258 _0280_
*259 _0281_
*260 _0282_
*261 _0283_
*262 _0284_
*263 _0285_
*264 _0286_
*265 _0287_
*266 _0288_
*267 _0289_
*268 _0290_
*269 _0291_
*270 _0292_
*271 _0293_
*272 _0294_
*273 _0295_
*274 _0296_
*275 _0297_
*276 _0298_
*277 _0299_
*278 _0300_
*279 _0301_
*280 _0302_
*281 _0303_
*282 _0304_
*283 _0305_
*284 _0306_
*285 _0307_
*286 _0308_
*287 _0309_
*288 _0310_
*289 _0311_
*290 _0312_
*291 _0313_
*292 _0314_
*293 _0315_
*294 _0316_
*295 _0317_
*296 _0318_
*297 _0319_
*298 _0320_
*299 _0321_
*300 _0322_
*301 _0323_
*302 _0324_
*303 _0325_
*304 _0326_
*305 _0327_
*306 _0328_
*307 _0329_
*308 _0330_
*309 _0331_
*310 _0332_
*311 _0333_
*312 _0334_
*313 _0335_
*314 _0336_
*315 _0337_
*316 _0338_
*317 _0339_
*318 _0340_
*319 _0341_
*320 _0342_
*321 _0343_
*322 _0344_
*323 _0345_
*324 _0346_
*325 _0347_
*326 _0348_
*327 _0349_
*328 _0350_
*329 _0351_
*330 _0352_
*331 _0353_
*332 _0354_
*333 _0355_
*334 _0356_
*335 _0357_
*336 _0358_
*337 _0359_
*338 _0360_
*339 _0361_
*340 _0362_
*341 _0363_
*342 _0364_
*343 _0365_
*344 _0366_
*345 _0367_
*346 _0368_
*347 _0369_
*348 _0370_
*349 _0371_
*350 _0372_
*351 _0373_
*352 _0374_
*353 _0375_
*354 _0376_
*355 _0377_
*356 _0378_
*357 _0379_
*358 _0380_
*359 _0381_
*360 _0382_
*361 _0383_
*362 _0384_
*363 _0385_
*364 _0386_
*365 _0387_
*366 _0388_
*367 _0389_
*368 _0390_
*369 _0391_
*370 _0392_
*371 _0393_
*372 _0394_
*373 _0395_
*374 _0396_
*375 _0397_
*376 _0398_
*377 _0399_
*378 _0400_
*379 _0401_
*380 _0402_
*381 _0403_
*382 _0404_
*383 _0405_
*384 _0406_
*385 _0407_
*386 _0408_
*387 _0409_
*388 _0410_
*389 _0411_
*390 _0412_
*391 _0413_
*392 _0414_
*393 _0415_
*394 _0416_
*395 _0417_
*396 _0418_
*397 _0419_
*398 _0420_
*399 _0421_
*400 _0422_
*401 _0423_
*402 _0424_
*403 _0425_
*404 _0426_
*405 _0427_
*406 _0428_
*407 _0429_
*408 _0430_
*409 _0431_
*410 _0432_
*411 _0433_
*412 _0434_
*413 _0435_
*414 _0436_
*415 _0437_
*416 _0438_
*417 _0439_
*418 _0440_
*419 _0441_
*420 _0442_
*421 _0443_
*422 _0444_
*423 _0445_
*424 _0446_
*425 _0447_
*426 _0448_
*427 _0449_
*428 _0450_
*429 _0451_
*430 _0452_
*431 _0453_
*432 _0454_
*433 _0455_
*434 _0456_
*435 _0457_
*436 _0458_
*437 _0459_
*438 _0460_
*439 _0461_
*440 _0462_
*441 _0463_
*442 _0464_
*443 _0465_
*444 _0466_
*445 _0467_
*446 _0468_
*447 _0469_
*448 _0470_
*449 _0471_
*450 _0472_
*451 _0473_
*452 _0474_
*453 _0475_
*454 _0476_
*455 _0477_
*456 _0478_
*457 _0479_
*458 _0480_
*459 _0481_
*460 _0482_
*461 _0483_
*462 clknet_0__0322_
*463 clknet_0__0323_
*464 clknet_0__0324_
*465 clknet_0__0325_
*466 clknet_0__0331_
*467 clknet_0__0332_
*468 clknet_0__0333_
*469 clknet_0__0334_
*470 clknet_0__0335_
*471 clknet_0__0336_
*472 clknet_0__0337_
*473 clknet_0__0338_
*474 clknet_0__0339_
*475 clknet_0__0340_
*476 clknet_0__0347_
*477 clknet_0_clk_master
*478 clknet_0_w0\.cclk_I
*479 clknet_1_0_0__0322_
*480 clknet_1_0_0__0323_
*481 clknet_1_0_0__0324_
*482 clknet_1_0_0__0325_
*483 clknet_1_0_0__0332_
*484 clknet_1_0_0__0333_
*485 clknet_1_0_0__0334_
*486 clknet_1_0_0__0335_
*487 clknet_1_0_0__0337_
*488 clknet_1_0_0__0338_
*489 clknet_1_0_0__0339_
*490 clknet_1_0_0__0340_
*491 clknet_1_0_0__0347_
*492 clknet_1_0_0_clk_master
*493 clknet_1_0_0_w0\.cclk_I
*494 clknet_1_0__leaf__0331_
*495 clknet_1_0__leaf__0336_
*496 clknet_1_1_0__0322_
*497 clknet_1_1_0__0323_
*498 clknet_1_1_0__0324_
*499 clknet_1_1_0__0325_
*500 clknet_1_1_0__0332_
*501 clknet_1_1_0__0333_
*502 clknet_1_1_0__0334_
*503 clknet_1_1_0__0335_
*504 clknet_1_1_0__0337_
*505 clknet_1_1_0__0338_
*506 clknet_1_1_0__0339_
*507 clknet_1_1_0__0340_
*508 clknet_1_1_0__0347_
*509 clknet_1_1_0_clk_master
*510 clknet_1_1_0_w0\.cclk_I
*511 clknet_1_1__leaf__0331_
*512 clknet_1_1__leaf__0336_
*513 clknet_2_0_0_clk_master
*514 clknet_2_0_0_w0\.cclk_I
*515 clknet_2_1_0_clk_master
*516 clknet_2_1_0_w0\.cclk_I
*517 clknet_2_2_0_clk_master
*518 clknet_2_2_0_w0\.cclk_I
*519 clknet_2_3_0_clk_master
*520 clknet_2_3_0_w0\.cclk_I
*521 clknet_opt_1_0_w0\.cclk_I
*522 net1
*523 net10
*524 net100
*525 net101
*526 net102
*527 net103
*528 net11
*529 net12
*530 net13
*531 net14
*532 net15
*533 net16
*534 net17
*535 net18
*536 net19
*537 net2
*538 net20
*539 net21
*540 net22
*541 net23
*542 net24
*543 net25
*544 net26
*545 net27
*546 net28
*547 net29
*548 net3
*549 net30
*550 net31
*551 net32
*552 net33
*553 net34
*554 net35
*555 net36
*556 net37
*557 net38
*558 net39
*559 net4
*560 net40
*561 net41
*562 net42
*563 net43
*564 net44
*565 net45
*566 net46
*567 net47
*568 net48
*569 net49
*570 net5
*571 net50
*572 net51
*573 net52
*574 net53
*575 net54
*576 net55
*577 net56
*578 net57
*579 net58
*580 net59
*581 net6
*582 net60
*583 net61
*584 net62
*585 net63
*586 net64
*587 net65
*588 net66
*589 net67
*590 net68
*591 net69
*592 net7
*593 net70
*594 net71
*595 net72
*596 net73
*597 net74
*598 net75
*599 net76
*600 net77
*601 net78
*602 net79
*603 net8
*604 net80
*605 net81
*606 net82
*607 net83
*608 net84
*609 net85
*610 net86
*611 net87
*612 net88
*613 net89
*614 net9
*615 net90
*616 net91
*617 net92
*618 net93
*619 net94
*620 net95
*621 net96
*622 net97
*623 net98
*624 net99
*625 w0\.POL_EVE_I\.comp_out
*626 w0\.POL_EVE_I\.dff1\.q
*627 w0\.POL_EVE_I\.dff2\.q
*628 w0\.POL_EVE_I\.dff3\.q
*629 w0\.POL_EVE_I\.eve
*630 w0\.POL_EVE_I\.polxevent
*631 w0\.POL_EVE_Q\.comp_out
*632 w0\.POL_EVE_Q\.dff1\.q
*633 w0\.POL_EVE_Q\.dff2\.q
*634 w0\.POL_EVE_Q\.dff3\.q
*635 w0\.POL_EVE_Q\.eve
*636 w0\.POL_EVE_Q\.polxevent
*637 w0\.bank1\.cos_out
*638 w0\.bank1\.sin_out
*639 w0\.cclk_I
*640 w0\.div2\.dff\.d
*641 w0\.div2\.dff\.q
*642 w0\.fb1_I
*643 w0\.fb1_Q
*644 w0\.fb_block_I\.gs_f\.fb_gray_selector_loop\[0\]\.dl\.d
*645 w0\.fb_block_I\.gs_f\.fb_gray_selector_loop\[0\]\.eff3\.d1
*646 w0\.fb_block_I\.gs_f\.fb_gray_selector_loop\[0\]\.eff3\.d2
*647 w0\.fb_block_I\.gs_f\.fb_gray_selector_loop\[0\]\.eff3\.dff\.q
*648 w0\.fb_block_I\.gs_f\.fb_gray_selector_loop\[0\]\.eff3\.dff_n\.q
*649 w0\.fb_block_I\.gs_f\.fb_gray_selector_loop\[0\]\.t_buf\.ctrlb
*650 w0\.fb_block_I\.gs_f\.fb_gray_selector_loop\[0\]\.t_buf\.in
*651 w0\.fb_block_I\.gs_f\.fb_gray_selector_loop\[1\]\.eff3\.d1
*652 w0\.fb_block_I\.gs_f\.fb_gray_selector_loop\[1\]\.eff3\.d2
*653 w0\.fb_block_I\.gs_f\.fb_gray_selector_loop\[1\]\.eff3\.dff\.q
*654 w0\.fb_block_I\.gs_f\.fb_gray_selector_loop\[1\]\.eff3\.dff_n\.q
*655 w0\.fb_block_I\.gs_f\.fb_gray_selector_loop\[1\]\.t_buf\.ctrlb
*656 w0\.fb_block_I\.gs_f\.fb_gray_selector_loop\[1\]\.t_buf\.in
*657 w0\.fb_block_I\.gs_f\.fb_gray_selector_loop\[2\]\.eff3\.d1
*658 w0\.fb_block_I\.gs_f\.fb_gray_selector_loop\[2\]\.eff3\.d2
*659 w0\.fb_block_I\.gs_f\.fb_gray_selector_loop\[2\]\.eff3\.dff\.q
*660 w0\.fb_block_I\.gs_f\.fb_gray_selector_loop\[2\]\.eff3\.dff_n\.q
*661 w0\.fb_block_I\.gs_f\.fb_gray_selector_loop\[2\]\.t_buf\.ctrlb
*662 w0\.fb_block_I\.gs_f\.fb_gray_selector_loop\[2\]\.t_buf\.in
*663 w0\.fb_block_I\.gs_f\.fb_gray_selector_loop\[3\]\.eff3\.d1
*664 w0\.fb_block_I\.gs_f\.fb_gray_selector_loop\[3\]\.eff3\.d2
*665 w0\.fb_block_I\.gs_f\.fb_gray_selector_loop\[3\]\.eff3\.dff\.q
*666 w0\.fb_block_I\.gs_f\.fb_gray_selector_loop\[3\]\.eff3\.dff_n\.q
*667 w0\.fb_block_I\.gs_f\.fb_gray_selector_loop\[3\]\.t_buf\.ctrlb
*668 w0\.fb_block_I\.gs_f\.fb_gray_selector_loop\[3\]\.t_buf\.in
*669 w0\.fb_block_I\.gs_f\.fb_gray_selector_loop\[4\]\.eff3\.d1
*670 w0\.fb_block_I\.gs_f\.fb_gray_selector_loop\[4\]\.eff3\.d2
*671 w0\.fb_block_I\.gs_f\.fb_gray_selector_loop\[4\]\.eff3\.dff\.q
*672 w0\.fb_block_I\.gs_f\.fb_gray_selector_loop\[4\]\.eff3\.dff_n\.q
*673 w0\.fb_block_I\.gs_f\.fb_gray_selector_loop\[4\]\.t_buf\.ctrlb
*674 w0\.fb_block_I\.gs_f\.fb_gray_selector_loop\[4\]\.t_buf\.in
*675 w0\.fb_block_I\.gs_f\.fb_gray_selector_loop\[5\]\.eff3\.d1
*676 w0\.fb_block_I\.gs_f\.fb_gray_selector_loop\[5\]\.eff3\.d2
*677 w0\.fb_block_I\.gs_f\.fb_gray_selector_loop\[5\]\.eff3\.dff\.q
*678 w0\.fb_block_I\.gs_f\.fb_gray_selector_loop\[5\]\.eff3\.dff_n\.q
*679 w0\.fb_block_I\.gs_f\.fb_gray_selector_loop\[5\]\.t_buf\.ctrlb
*680 w0\.fb_block_I\.gs_f\.fb_gray_selector_loop\[5\]\.t_buf\.in
*681 w0\.fb_block_I\.gs_f\.fb_gray_selector_loop\[6\]\.eff3\.d1
*682 w0\.fb_block_I\.gs_f\.fb_gray_selector_loop\[6\]\.eff3\.d2
*683 w0\.fb_block_I\.gs_f\.fb_gray_selector_loop\[6\]\.eff3\.dff\.q
*684 w0\.fb_block_I\.gs_f\.fb_gray_selector_loop\[6\]\.eff3\.dff_n\.q
*685 w0\.fb_block_I\.gs_f\.fb_gray_selector_loop\[6\]\.t_buf\.ctrlb
*686 w0\.fb_block_I\.gs_f\.fb_gray_selector_loop\[6\]\.t_buf\.in
*687 w0\.fb_block_I\.gs_f\.fb_gray_selector_loop\[7\]\.eff3\.d1
*688 w0\.fb_block_I\.gs_f\.fb_gray_selector_loop\[7\]\.eff3\.d2
*689 w0\.fb_block_I\.gs_f\.fb_gray_selector_loop\[7\]\.eff3\.dff\.q
*690 w0\.fb_block_I\.gs_f\.fb_gray_selector_loop\[7\]\.eff3\.dff_n\.q
*691 w0\.fb_block_I\.gs_f\.fb_gray_selector_loop\[7\]\.t_buf\.ctrlb
*692 w0\.fb_block_I\.gs_f\.fb_gray_selector_loop\[7\]\.t_buf\.in
*693 w0\.fb_block_I\.gs_f\.fb_gray_selector_loop\[8\]\.eff3\.d1
*694 w0\.fb_block_I\.gs_f\.fb_gray_selector_loop\[8\]\.eff3\.d2
*695 w0\.fb_block_I\.gs_f\.fb_gray_selector_loop\[8\]\.eff3\.dff\.q
*696 w0\.fb_block_I\.gs_f\.fb_gray_selector_loop\[8\]\.eff3\.dff_n\.q
*697 w0\.fb_block_I\.gs_f\.fb_gray_selector_loop\[8\]\.t_buf\.ctrlb
*698 w0\.fb_block_I\.gs_f\.fb_gray_selector_loop\[8\]\.t_buf\.in
*699 w0\.fb_block_I\.gs_f\.fb_gray_selector_loop\[9\]\.eff3\.d1
*700 w0\.fb_block_I\.gs_f\.fb_gray_selector_loop\[9\]\.eff3\.d2
*701 w0\.fb_block_I\.gs_f\.fb_gray_selector_loop\[9\]\.eff3\.dff\.q
*702 w0\.fb_block_I\.gs_f\.fb_gray_selector_loop\[9\]\.eff3\.dff_n\.q
*703 w0\.fb_block_I\.gs_f\.fb_gray_selector_loop\[9\]\.t_buf\.ctrlb
*704 w0\.fb_block_I\.gs_f\.fb_gray_selector_loop\[9\]\.t_buf\.in
*705 w0\.fb_block_I\.ud_c\.bin_counter\[0\]\.cc\.q
*706 w0\.fb_block_I\.ud_c\.bin_counter\[0\]\.cc\.tff1\.d
*707 w0\.fb_block_I\.ud_c\.bin_counter\[10\]\.cc\.tff1\.d
*708 w0\.fb_block_I\.ud_c\.bin_counter\[11\]\.cc\.tff1\.d
*709 w0\.fb_block_I\.ud_c\.bin_counter\[12\]\.cc\.tff1\.d
*710 w0\.fb_block_I\.ud_c\.bin_counter\[13\]\.cc\.tff1\.d
*711 w0\.fb_block_I\.ud_c\.bin_counter\[1\]\.cc\.q
*712 w0\.fb_block_I\.ud_c\.bin_counter\[1\]\.cc\.tff1\.d
*713 w0\.fb_block_I\.ud_c\.bin_counter\[2\]\.cc\.q
*714 w0\.fb_block_I\.ud_c\.bin_counter\[2\]\.cc\.tff1\.d
*715 w0\.fb_block_I\.ud_c\.bin_counter\[3\]\.cc\.q
*716 w0\.fb_block_I\.ud_c\.bin_counter\[3\]\.cc\.tff1\.d
*717 w0\.fb_block_I\.ud_c\.bin_counter\[4\]\.cc\.q
*718 w0\.fb_block_I\.ud_c\.bin_counter\[4\]\.cc\.tff1\.d
*719 w0\.fb_block_I\.ud_c\.bin_counter\[5\]\.cc\.tff1\.d
*720 w0\.fb_block_I\.ud_c\.bin_counter\[6\]\.cc\.tff1\.d
*721 w0\.fb_block_I\.ud_c\.bin_counter\[7\]\.cc\.tff1\.d
*722 w0\.fb_block_I\.ud_c\.bin_counter\[8\]\.cc\.tff1\.d
*723 w0\.fb_block_I\.ud_c\.bin_counter\[9\]\.cc\.tff1\.d
*724 w0\.fb_block_I\.ud_c\.cc1\.q
*725 w0\.fb_block_I\.ud_c\.cc1\.tff1\.d
*726 w0\.fb_block_I\.ud_c\.tff_end\.d
*727 w0\.fb_block_Q\.gs_f\.fb_gray_selector_loop\[0\]\.dl\.d
*728 w0\.fb_block_Q\.gs_f\.fb_gray_selector_loop\[0\]\.eff3\.d1
*729 w0\.fb_block_Q\.gs_f\.fb_gray_selector_loop\[0\]\.eff3\.d2
*730 w0\.fb_block_Q\.gs_f\.fb_gray_selector_loop\[0\]\.eff3\.dff\.q
*731 w0\.fb_block_Q\.gs_f\.fb_gray_selector_loop\[0\]\.eff3\.dff_n\.q
*732 w0\.fb_block_Q\.gs_f\.fb_gray_selector_loop\[0\]\.t_buf\.ctrlb
*733 w0\.fb_block_Q\.gs_f\.fb_gray_selector_loop\[0\]\.t_buf\.in
*734 w0\.fb_block_Q\.gs_f\.fb_gray_selector_loop\[1\]\.eff3\.d1
*735 w0\.fb_block_Q\.gs_f\.fb_gray_selector_loop\[1\]\.eff3\.d2
*736 w0\.fb_block_Q\.gs_f\.fb_gray_selector_loop\[1\]\.eff3\.dff\.q
*737 w0\.fb_block_Q\.gs_f\.fb_gray_selector_loop\[1\]\.eff3\.dff_n\.q
*738 w0\.fb_block_Q\.gs_f\.fb_gray_selector_loop\[1\]\.t_buf\.ctrlb
*739 w0\.fb_block_Q\.gs_f\.fb_gray_selector_loop\[1\]\.t_buf\.in
*740 w0\.fb_block_Q\.gs_f\.fb_gray_selector_loop\[2\]\.eff3\.d1
*741 w0\.fb_block_Q\.gs_f\.fb_gray_selector_loop\[2\]\.eff3\.d2
*742 w0\.fb_block_Q\.gs_f\.fb_gray_selector_loop\[2\]\.eff3\.dff\.q
*743 w0\.fb_block_Q\.gs_f\.fb_gray_selector_loop\[2\]\.eff3\.dff_n\.q
*744 w0\.fb_block_Q\.gs_f\.fb_gray_selector_loop\[2\]\.t_buf\.ctrlb
*745 w0\.fb_block_Q\.gs_f\.fb_gray_selector_loop\[2\]\.t_buf\.in
*746 w0\.fb_block_Q\.gs_f\.fb_gray_selector_loop\[3\]\.eff3\.d1
*747 w0\.fb_block_Q\.gs_f\.fb_gray_selector_loop\[3\]\.eff3\.d2
*748 w0\.fb_block_Q\.gs_f\.fb_gray_selector_loop\[3\]\.eff3\.dff\.q
*749 w0\.fb_block_Q\.gs_f\.fb_gray_selector_loop\[3\]\.eff3\.dff_n\.q
*750 w0\.fb_block_Q\.gs_f\.fb_gray_selector_loop\[3\]\.t_buf\.ctrlb
*751 w0\.fb_block_Q\.gs_f\.fb_gray_selector_loop\[3\]\.t_buf\.in
*752 w0\.fb_block_Q\.gs_f\.fb_gray_selector_loop\[4\]\.eff3\.d1
*753 w0\.fb_block_Q\.gs_f\.fb_gray_selector_loop\[4\]\.eff3\.d2
*754 w0\.fb_block_Q\.gs_f\.fb_gray_selector_loop\[4\]\.eff3\.dff\.q
*755 w0\.fb_block_Q\.gs_f\.fb_gray_selector_loop\[4\]\.eff3\.dff_n\.q
*756 w0\.fb_block_Q\.gs_f\.fb_gray_selector_loop\[4\]\.t_buf\.ctrlb
*757 w0\.fb_block_Q\.gs_f\.fb_gray_selector_loop\[4\]\.t_buf\.in
*758 w0\.fb_block_Q\.gs_f\.fb_gray_selector_loop\[5\]\.eff3\.d1
*759 w0\.fb_block_Q\.gs_f\.fb_gray_selector_loop\[5\]\.eff3\.d2
*760 w0\.fb_block_Q\.gs_f\.fb_gray_selector_loop\[5\]\.eff3\.dff\.q
*761 w0\.fb_block_Q\.gs_f\.fb_gray_selector_loop\[5\]\.eff3\.dff_n\.q
*762 w0\.fb_block_Q\.gs_f\.fb_gray_selector_loop\[5\]\.t_buf\.ctrlb
*763 w0\.fb_block_Q\.gs_f\.fb_gray_selector_loop\[5\]\.t_buf\.in
*764 w0\.fb_block_Q\.gs_f\.fb_gray_selector_loop\[6\]\.eff3\.d1
*765 w0\.fb_block_Q\.gs_f\.fb_gray_selector_loop\[6\]\.eff3\.d2
*766 w0\.fb_block_Q\.gs_f\.fb_gray_selector_loop\[6\]\.eff3\.dff\.q
*767 w0\.fb_block_Q\.gs_f\.fb_gray_selector_loop\[6\]\.eff3\.dff_n\.q
*768 w0\.fb_block_Q\.gs_f\.fb_gray_selector_loop\[6\]\.t_buf\.ctrlb
*769 w0\.fb_block_Q\.gs_f\.fb_gray_selector_loop\[6\]\.t_buf\.in
*770 w0\.fb_block_Q\.gs_f\.fb_gray_selector_loop\[7\]\.eff3\.d1
*771 w0\.fb_block_Q\.gs_f\.fb_gray_selector_loop\[7\]\.eff3\.d2
*772 w0\.fb_block_Q\.gs_f\.fb_gray_selector_loop\[7\]\.eff3\.dff\.q
*773 w0\.fb_block_Q\.gs_f\.fb_gray_selector_loop\[7\]\.eff3\.dff_n\.q
*774 w0\.fb_block_Q\.gs_f\.fb_gray_selector_loop\[7\]\.t_buf\.ctrlb
*775 w0\.fb_block_Q\.gs_f\.fb_gray_selector_loop\[7\]\.t_buf\.in
*776 w0\.fb_block_Q\.gs_f\.fb_gray_selector_loop\[8\]\.eff3\.d1
*777 w0\.fb_block_Q\.gs_f\.fb_gray_selector_loop\[8\]\.eff3\.d2
*778 w0\.fb_block_Q\.gs_f\.fb_gray_selector_loop\[8\]\.eff3\.dff\.q
*779 w0\.fb_block_Q\.gs_f\.fb_gray_selector_loop\[8\]\.eff3\.dff_n\.q
*780 w0\.fb_block_Q\.gs_f\.fb_gray_selector_loop\[8\]\.t_buf\.ctrlb
*781 w0\.fb_block_Q\.gs_f\.fb_gray_selector_loop\[8\]\.t_buf\.in
*782 w0\.fb_block_Q\.gs_f\.fb_gray_selector_loop\[9\]\.eff3\.d1
*783 w0\.fb_block_Q\.gs_f\.fb_gray_selector_loop\[9\]\.eff3\.d2
*784 w0\.fb_block_Q\.gs_f\.fb_gray_selector_loop\[9\]\.eff3\.dff\.q
*785 w0\.fb_block_Q\.gs_f\.fb_gray_selector_loop\[9\]\.eff3\.dff_n\.q
*786 w0\.fb_block_Q\.gs_f\.fb_gray_selector_loop\[9\]\.t_buf\.ctrlb
*787 w0\.fb_block_Q\.gs_f\.fb_gray_selector_loop\[9\]\.t_buf\.in
*788 w0\.fb_block_Q\.ud_c\.bin_counter\[0\]\.cc\.q
*789 w0\.fb_block_Q\.ud_c\.bin_counter\[0\]\.cc\.tff1\.d
*790 w0\.fb_block_Q\.ud_c\.bin_counter\[10\]\.cc\.tff1\.d
*791 w0\.fb_block_Q\.ud_c\.bin_counter\[11\]\.cc\.tff1\.d
*792 w0\.fb_block_Q\.ud_c\.bin_counter\[12\]\.cc\.tff1\.d
*793 w0\.fb_block_Q\.ud_c\.bin_counter\[13\]\.cc\.tff1\.d
*794 w0\.fb_block_Q\.ud_c\.bin_counter\[1\]\.cc\.q
*795 w0\.fb_block_Q\.ud_c\.bin_counter\[1\]\.cc\.tff1\.d
*796 w0\.fb_block_Q\.ud_c\.bin_counter\[2\]\.cc\.q
*797 w0\.fb_block_Q\.ud_c\.bin_counter\[2\]\.cc\.tff1\.d
*798 w0\.fb_block_Q\.ud_c\.bin_counter\[3\]\.cc\.q
*799 w0\.fb_block_Q\.ud_c\.bin_counter\[3\]\.cc\.tff1\.d
*800 w0\.fb_block_Q\.ud_c\.bin_counter\[4\]\.cc\.q
*801 w0\.fb_block_Q\.ud_c\.bin_counter\[4\]\.cc\.tff1\.d
*802 w0\.fb_block_Q\.ud_c\.bin_counter\[5\]\.cc\.tff1\.d
*803 w0\.fb_block_Q\.ud_c\.bin_counter\[6\]\.cc\.tff1\.d
*804 w0\.fb_block_Q\.ud_c\.bin_counter\[7\]\.cc\.tff1\.d
*805 w0\.fb_block_Q\.ud_c\.bin_counter\[8\]\.cc\.tff1\.d
*806 w0\.fb_block_Q\.ud_c\.bin_counter\[9\]\.cc\.tff1\.d
*807 w0\.fb_block_Q\.ud_c\.cc1\.q
*808 w0\.fb_block_Q\.ud_c\.cc1\.tff1\.d
*809 w0\.fb_block_Q\.ud_c\.tff_end\.d
*810 w0\.gray_gen\.cell2\.eff_gray\.d1
*811 w0\.gray_gen\.cell2\.eff_gray\.d2
*812 w0\.gray_gen\.cell2\.eff_gray\.dff\.q
*813 w0\.gray_gen\.cell2\.eff_gray\.dff_n\.q
*814 w0\.gray_gen\.first_gray\.eff\.d1
*815 w0\.gray_gen\.first_gray\.eff\.d2
*816 w0\.gray_gen\.first_gray\.eff\.dff\.q
*817 w0\.gray_gen\.first_gray\.eff\.dff_n\.q
*818 w0\.gray_gen\.first_gray\.t_ff\.eff_gray\.d1
*819 w0\.gray_gen\.first_gray\.t_ff\.eff_gray\.d2
*820 w0\.gray_gen\.first_gray\.t_ff\.eff_gray\.dff\.q
*821 w0\.gray_gen\.first_gray\.t_ff\.eff_gray\.dff_n\.q
*822 w0\.gray_gen\.gray_loop\[1\]\.gray\.eff_gray\.d1
*823 w0\.gray_gen\.gray_loop\[1\]\.gray\.eff_gray\.d2
*824 w0\.gray_gen\.gray_loop\[1\]\.gray\.eff_gray\.dff\.q
*825 w0\.gray_gen\.gray_loop\[1\]\.gray\.eff_gray\.dff_n\.q
*826 w0\.gray_gen\.gray_loop\[2\]\.gray\.eff_gray\.d1
*827 w0\.gray_gen\.gray_loop\[2\]\.gray\.eff_gray\.d2
*828 w0\.gray_gen\.gray_loop\[2\]\.gray\.eff_gray\.dff\.q
*829 w0\.gray_gen\.gray_loop\[2\]\.gray\.eff_gray\.dff_n\.q
*830 w0\.gray_gen\.gray_loop\[3\]\.gray\.eff_gray\.d1
*831 w0\.gray_gen\.gray_loop\[3\]\.gray\.eff_gray\.d2
*832 w0\.gray_gen\.gray_loop\[3\]\.gray\.eff_gray\.dff\.q
*833 w0\.gray_gen\.gray_loop\[3\]\.gray\.eff_gray\.dff_n\.q
*834 w0\.gray_gen\.gray_loop\[4\]\.gray\.eff_gray\.d1
*835 w0\.gray_gen\.gray_loop\[4\]\.gray\.eff_gray\.d2
*836 w0\.gray_gen\.gray_loop\[4\]\.gray\.eff_gray\.dff\.q
*837 w0\.gray_gen\.gray_loop\[4\]\.gray\.eff_gray\.dff_n\.q
*838 w0\.gray_gen\.gray_loop\[5\]\.gray\.eff_gray\.d1
*839 w0\.gray_gen\.gray_loop\[5\]\.gray\.eff_gray\.d2
*840 w0\.gray_gen\.gray_loop\[5\]\.gray\.eff_gray\.dff\.q
*841 w0\.gray_gen\.gray_loop\[5\]\.gray\.eff_gray\.dff_n\.q
*842 w0\.gray_gen\.gray_loop\[5\]\.gray\.inv_out
*843 w0\.gray_gen\.gray_loop\[6\]\.gray\.eff_gray\.d1
*844 w0\.gray_gen\.gray_loop\[6\]\.gray\.eff_gray\.d2
*845 w0\.gray_gen\.gray_loop\[6\]\.gray\.eff_gray\.dff\.q
*846 w0\.gray_gen\.gray_loop\[6\]\.gray\.eff_gray\.dff_n\.q
*847 w0\.gray_gen\.gray_loop\[6\]\.gray\.inv_out
*848 w0\.gray_gen\.gray_loop\[7\]\.gray\.eff_gray\.d1
*849 w0\.gray_gen\.gray_loop\[7\]\.gray\.eff_gray\.d2
*850 w0\.gray_gen\.gray_loop\[7\]\.gray\.eff_gray\.dff\.q
*851 w0\.gray_gen\.gray_loop\[7\]\.gray\.eff_gray\.dff_n\.q
*852 w0\.gray_gen\.gray_loop\[7\]\.gray\.inv_out
*853 w0\.gray_gen\.gray_loop\[8\]\.gray\.eff_gray\.d1
*854 w0\.gray_gen\.gray_loop\[8\]\.gray\.eff_gray\.d2
*855 w0\.gray_gen\.gray_loop\[8\]\.gray\.eff_gray\.dff\.q
*856 w0\.gray_gen\.gray_loop\[8\]\.gray\.eff_gray\.dff_n\.q
*857 w0\.gray_gen\.gray_loop\[8\]\.gray\.inv_out
*858 w0\.gray_gen\.gray_loop\[9\]\.gray\.eff_gray\.d1
*859 w0\.gray_gen\.gray_loop\[9\]\.gray\.eff_gray\.d2
*860 w0\.gray_gen\.gray_loop\[9\]\.gray\.eff_gray\.dff\.q
*861 w0\.gray_gen\.gray_loop\[9\]\.gray\.eff_gray\.dff_n\.q
*862 w0\.gray_gen\.sine_cell\.eff_gray\.d1
*863 w0\.gray_gen\.sine_cell\.eff_gray\.d2
*864 w0\.gray_gen\.sine_cell\.eff_gray\.dff\.q
*865 w0\.gray_gen\.sine_cell\.eff_gray\.dff_n\.q
*866 w0\.ro_block_I\.out_mux_eve
*867 w0\.ro_block_I\.out_mux_pol_eve
*868 w0\.ro_block_I\.ro_pol\.eff\.eff_gray\.d1
*869 w0\.ro_block_I\.ro_pol\.eff\.eff_gray\.d2
*870 w0\.ro_block_I\.ro_pol\.eff\.eff_gray\.dff\.q
*871 w0\.ro_block_I\.ro_pol\.eff\.eff_gray\.dff_n\.q
*872 w0\.ro_block_I\.ro_pol\.eff_outb
*873 w0\.ro_block_I\.ro_pol_eve\.eff\.eff_gray\.d1
*874 w0\.ro_block_I\.ro_pol_eve\.eff\.eff_gray\.d2
*875 w0\.ro_block_I\.ro_pol_eve\.eff\.eff_gray\.dff\.q
*876 w0\.ro_block_I\.ro_pol_eve\.eff\.eff_gray\.dff_n\.q
*877 w0\.ro_block_I\.ro_pol_eve\.eff_outb
*878 w0\.ro_block_Q\.out_mux_eve
*879 w0\.ro_block_Q\.out_mux_pol_eve
*880 w0\.ro_block_Q\.ro_pol\.eff\.eff_gray\.d1
*881 w0\.ro_block_Q\.ro_pol\.eff\.eff_gray\.d2
*882 w0\.ro_block_Q\.ro_pol\.eff\.eff_gray\.dff\.q
*883 w0\.ro_block_Q\.ro_pol\.eff\.eff_gray\.dff_n\.q
*884 w0\.ro_block_Q\.ro_pol\.eff_outb
*885 w0\.ro_block_Q\.ro_pol_eve\.eff\.eff_gray\.d1
*886 w0\.ro_block_Q\.ro_pol_eve\.eff\.eff_gray\.d2
*887 w0\.ro_block_Q\.ro_pol_eve\.eff\.eff_gray\.dff\.q
*888 w0\.ro_block_Q\.ro_pol_eve\.eff\.eff_gray\.dff_n\.q
*889 w0\.ro_block_Q\.ro_pol_eve\.eff_outb
*890 wrapper_cell_loop\[0\]\.w1\.POL_EVE_I\.comp_out
*891 wrapper_cell_loop\[0\]\.w1\.POL_EVE_I\.dff1\.q
*892 wrapper_cell_loop\[0\]\.w1\.POL_EVE_I\.dff2\.q
*893 wrapper_cell_loop\[0\]\.w1\.POL_EVE_I\.dff3\.q
*894 wrapper_cell_loop\[0\]\.w1\.POL_EVE_I\.eve
*895 wrapper_cell_loop\[0\]\.w1\.POL_EVE_I\.polxevent
*896 wrapper_cell_loop\[0\]\.w1\.POL_EVE_Q\.comp_out
*897 wrapper_cell_loop\[0\]\.w1\.POL_EVE_Q\.dff1\.q
*898 wrapper_cell_loop\[0\]\.w1\.POL_EVE_Q\.dff2\.q
*899 wrapper_cell_loop\[0\]\.w1\.POL_EVE_Q\.dff3\.q
*900 wrapper_cell_loop\[0\]\.w1\.POL_EVE_Q\.eve
*901 wrapper_cell_loop\[0\]\.w1\.POL_EVE_Q\.polxevent
*902 wrapper_cell_loop\[0\]\.w1\.bank1\.cos_out
*903 wrapper_cell_loop\[0\]\.w1\.bank1\.sin_out
*904 wrapper_cell_loop\[0\]\.w1\.cclk_I
*905 wrapper_cell_loop\[0\]\.w1\.div2\.dff\.d
*906 wrapper_cell_loop\[0\]\.w1\.div2\.dff\.q
*907 wrapper_cell_loop\[0\]\.w1\.fb1_I
*908 wrapper_cell_loop\[0\]\.w1\.fb1_Q
*909 wrapper_cell_loop\[0\]\.w1\.fb_block_I\.gs_f\.fb_gray_selector_loop\[0\]\.dl\.d
*910 wrapper_cell_loop\[0\]\.w1\.fb_block_I\.gs_f\.fb_gray_selector_loop\[0\]\.eff3\.d1
*911 wrapper_cell_loop\[0\]\.w1\.fb_block_I\.gs_f\.fb_gray_selector_loop\[0\]\.eff3\.d2
*912 wrapper_cell_loop\[0\]\.w1\.fb_block_I\.gs_f\.fb_gray_selector_loop\[0\]\.eff3\.dff\.q
*913 wrapper_cell_loop\[0\]\.w1\.fb_block_I\.gs_f\.fb_gray_selector_loop\[0\]\.eff3\.dff_n\.q
*914 wrapper_cell_loop\[0\]\.w1\.fb_block_I\.gs_f\.fb_gray_selector_loop\[0\]\.t_buf\.ctrlb
*915 wrapper_cell_loop\[0\]\.w1\.fb_block_I\.gs_f\.fb_gray_selector_loop\[0\]\.t_buf\.in
*916 wrapper_cell_loop\[0\]\.w1\.fb_block_I\.gs_f\.fb_gray_selector_loop\[1\]\.eff3\.d1
*917 wrapper_cell_loop\[0\]\.w1\.fb_block_I\.gs_f\.fb_gray_selector_loop\[1\]\.eff3\.d2
*918 wrapper_cell_loop\[0\]\.w1\.fb_block_I\.gs_f\.fb_gray_selector_loop\[1\]\.eff3\.dff\.q
*919 wrapper_cell_loop\[0\]\.w1\.fb_block_I\.gs_f\.fb_gray_selector_loop\[1\]\.eff3\.dff_n\.q
*920 wrapper_cell_loop\[0\]\.w1\.fb_block_I\.gs_f\.fb_gray_selector_loop\[1\]\.t_buf\.ctrlb
*921 wrapper_cell_loop\[0\]\.w1\.fb_block_I\.gs_f\.fb_gray_selector_loop\[1\]\.t_buf\.in
*922 wrapper_cell_loop\[0\]\.w1\.fb_block_I\.gs_f\.fb_gray_selector_loop\[2\]\.eff3\.d1
*923 wrapper_cell_loop\[0\]\.w1\.fb_block_I\.gs_f\.fb_gray_selector_loop\[2\]\.eff3\.d2
*924 wrapper_cell_loop\[0\]\.w1\.fb_block_I\.gs_f\.fb_gray_selector_loop\[2\]\.eff3\.dff\.q
*925 wrapper_cell_loop\[0\]\.w1\.fb_block_I\.gs_f\.fb_gray_selector_loop\[2\]\.eff3\.dff_n\.q
*926 wrapper_cell_loop\[0\]\.w1\.fb_block_I\.gs_f\.fb_gray_selector_loop\[2\]\.t_buf\.ctrlb
*927 wrapper_cell_loop\[0\]\.w1\.fb_block_I\.gs_f\.fb_gray_selector_loop\[2\]\.t_buf\.in
*928 wrapper_cell_loop\[0\]\.w1\.fb_block_I\.gs_f\.fb_gray_selector_loop\[3\]\.eff3\.d1
*929 wrapper_cell_loop\[0\]\.w1\.fb_block_I\.gs_f\.fb_gray_selector_loop\[3\]\.eff3\.d2
*930 wrapper_cell_loop\[0\]\.w1\.fb_block_I\.gs_f\.fb_gray_selector_loop\[3\]\.eff3\.dff\.q
*931 wrapper_cell_loop\[0\]\.w1\.fb_block_I\.gs_f\.fb_gray_selector_loop\[3\]\.eff3\.dff_n\.q
*932 wrapper_cell_loop\[0\]\.w1\.fb_block_I\.gs_f\.fb_gray_selector_loop\[3\]\.t_buf\.ctrlb
*933 wrapper_cell_loop\[0\]\.w1\.fb_block_I\.gs_f\.fb_gray_selector_loop\[3\]\.t_buf\.in
*934 wrapper_cell_loop\[0\]\.w1\.fb_block_I\.gs_f\.fb_gray_selector_loop\[4\]\.eff3\.d1
*935 wrapper_cell_loop\[0\]\.w1\.fb_block_I\.gs_f\.fb_gray_selector_loop\[4\]\.eff3\.d2
*936 wrapper_cell_loop\[0\]\.w1\.fb_block_I\.gs_f\.fb_gray_selector_loop\[4\]\.eff3\.dff\.q
*937 wrapper_cell_loop\[0\]\.w1\.fb_block_I\.gs_f\.fb_gray_selector_loop\[4\]\.eff3\.dff_n\.q
*938 wrapper_cell_loop\[0\]\.w1\.fb_block_I\.gs_f\.fb_gray_selector_loop\[4\]\.t_buf\.ctrlb
*939 wrapper_cell_loop\[0\]\.w1\.fb_block_I\.gs_f\.fb_gray_selector_loop\[4\]\.t_buf\.in
*940 wrapper_cell_loop\[0\]\.w1\.fb_block_I\.gs_f\.fb_gray_selector_loop\[5\]\.eff3\.d1
*941 wrapper_cell_loop\[0\]\.w1\.fb_block_I\.gs_f\.fb_gray_selector_loop\[5\]\.eff3\.d2
*942 wrapper_cell_loop\[0\]\.w1\.fb_block_I\.gs_f\.fb_gray_selector_loop\[5\]\.eff3\.dff\.q
*943 wrapper_cell_loop\[0\]\.w1\.fb_block_I\.gs_f\.fb_gray_selector_loop\[5\]\.eff3\.dff_n\.q
*944 wrapper_cell_loop\[0\]\.w1\.fb_block_I\.gs_f\.fb_gray_selector_loop\[5\]\.t_buf\.ctrlb
*945 wrapper_cell_loop\[0\]\.w1\.fb_block_I\.gs_f\.fb_gray_selector_loop\[5\]\.t_buf\.in
*946 wrapper_cell_loop\[0\]\.w1\.fb_block_I\.gs_f\.fb_gray_selector_loop\[6\]\.eff3\.d1
*947 wrapper_cell_loop\[0\]\.w1\.fb_block_I\.gs_f\.fb_gray_selector_loop\[6\]\.eff3\.d2
*948 wrapper_cell_loop\[0\]\.w1\.fb_block_I\.gs_f\.fb_gray_selector_loop\[6\]\.eff3\.dff\.q
*949 wrapper_cell_loop\[0\]\.w1\.fb_block_I\.gs_f\.fb_gray_selector_loop\[6\]\.eff3\.dff_n\.q
*950 wrapper_cell_loop\[0\]\.w1\.fb_block_I\.gs_f\.fb_gray_selector_loop\[6\]\.t_buf\.ctrlb
*951 wrapper_cell_loop\[0\]\.w1\.fb_block_I\.gs_f\.fb_gray_selector_loop\[6\]\.t_buf\.in
*952 wrapper_cell_loop\[0\]\.w1\.fb_block_I\.gs_f\.fb_gray_selector_loop\[7\]\.eff3\.d1
*953 wrapper_cell_loop\[0\]\.w1\.fb_block_I\.gs_f\.fb_gray_selector_loop\[7\]\.eff3\.d2
*954 wrapper_cell_loop\[0\]\.w1\.fb_block_I\.gs_f\.fb_gray_selector_loop\[7\]\.eff3\.dff\.q
*955 wrapper_cell_loop\[0\]\.w1\.fb_block_I\.gs_f\.fb_gray_selector_loop\[7\]\.eff3\.dff_n\.q
*956 wrapper_cell_loop\[0\]\.w1\.fb_block_I\.gs_f\.fb_gray_selector_loop\[7\]\.t_buf\.ctrlb
*957 wrapper_cell_loop\[0\]\.w1\.fb_block_I\.gs_f\.fb_gray_selector_loop\[7\]\.t_buf\.in
*958 wrapper_cell_loop\[0\]\.w1\.fb_block_I\.gs_f\.fb_gray_selector_loop\[8\]\.eff3\.d1
*959 wrapper_cell_loop\[0\]\.w1\.fb_block_I\.gs_f\.fb_gray_selector_loop\[8\]\.eff3\.d2
*960 wrapper_cell_loop\[0\]\.w1\.fb_block_I\.gs_f\.fb_gray_selector_loop\[8\]\.eff3\.dff\.q
*961 wrapper_cell_loop\[0\]\.w1\.fb_block_I\.gs_f\.fb_gray_selector_loop\[8\]\.eff3\.dff_n\.q
*962 wrapper_cell_loop\[0\]\.w1\.fb_block_I\.gs_f\.fb_gray_selector_loop\[8\]\.t_buf\.ctrlb
*963 wrapper_cell_loop\[0\]\.w1\.fb_block_I\.gs_f\.fb_gray_selector_loop\[8\]\.t_buf\.in
*964 wrapper_cell_loop\[0\]\.w1\.fb_block_I\.gs_f\.fb_gray_selector_loop\[9\]\.eff3\.d1
*965 wrapper_cell_loop\[0\]\.w1\.fb_block_I\.gs_f\.fb_gray_selector_loop\[9\]\.eff3\.d2
*966 wrapper_cell_loop\[0\]\.w1\.fb_block_I\.gs_f\.fb_gray_selector_loop\[9\]\.eff3\.dff\.q
*967 wrapper_cell_loop\[0\]\.w1\.fb_block_I\.gs_f\.fb_gray_selector_loop\[9\]\.eff3\.dff_n\.q
*968 wrapper_cell_loop\[0\]\.w1\.fb_block_I\.gs_f\.fb_gray_selector_loop\[9\]\.t_buf\.ctrlb
*969 wrapper_cell_loop\[0\]\.w1\.fb_block_I\.gs_f\.fb_gray_selector_loop\[9\]\.t_buf\.in