*SPEF "ieee 1481-1999"
*DESIGN "digital_unison"
*DATE "11:11:11 Fri 11 11, 1111"
*VENDOR "OpenRCX"
*PROGRAM "Parallel Extraction"
*VERSION "1.0"
*DESIGN_FLOW "NAME_SCOPE LOCAL" "PIN_CAP NONE"
*DIVIDER /
*DELIMITER :
*BUS_DELIMITER []
*T_UNIT 1 NS
*C_UNIT 1 PF
*R_UNIT 1 OHM
*L_UNIT 1 HENRY

*NAME_MAP
*1 cclk_I[0]
*2 cclk_I[1]
*3 cclk_Q[0]
*4 cclk_Q[1]
*5 clk_master
*6 clkdiv2_I[0]
*7 clkdiv2_I[1]
*8 clkdiv2_Q[0]
*9 clkdiv2_Q[1]
*10 comp_high_I[0]
*11 comp_high_I[1]
*12 comp_high_Q[0]
*13 comp_high_Q[1]
*14 cos_out[0]
*15 cos_out[1]
*16 fb1_I[0]
*17 fb1_I[1]
*18 fb1_Q[0]
*19 fb1_Q[1]
*20 phi1b_dig_I[0]
*21 phi1b_dig_I[1]
*22 phi1b_dig_Q[0]
*23 phi1b_dig_Q[1]
*24 read_out_I[0]
*25 read_out_I[1]
*26 read_out_Q[0]
*27 read_out_Q[1]
*28 rstb
*29 sin_out[0]
*30 sin_out[1]
*31 ud_en
*34 _0000_
*35 _0001_
*36 _0002_
*37 _0003_
*38 _0004_
*39 _0005_
*40 _0006_
*41 _0007_
*42 _0023_
*43 _0026_
*44 _0029_
*45 _0032_
*46 _0033_
*47 _0034_
*48 _0035_
*49 _0036_
*50 _0037_
*51 _0038_
*52 _0039_
*53 _0040_
*54 _0041_
*55 _0042_
*56 _0043_
*57 _0044_
*58 _0045_
*59 _0046_
*60 _0047_
*61 _0048_
*62 _0049_
*63 _0050_
*64 _0051_
*65 _0052_
*66 _0053_
*67 _0054_
*68 _0055_
*69 _0056_
*70 _0057_
*71 _0058_
*72 _0059_
*73 _0060_
*74 _0061_
*75 _0062_
*76 _0063_
*77 _0064_
*78 _0065_
*79 _0066_
*80 _0067_
*81 _0068_
*82 _0069_
*83 _0070_
*84 _0071_
*85 _0072_
*86 _0073_
*87 _0074_
*88 _0075_
*89 _0076_
*90 _0077_
*91 _0078_
*92 _0079_
*93 _0080_
*94 _0081_
*95 _0082_
*96 _0083_
*97 _0084_
*98 _0085_
*99 _0086_
*100 _0087_
*101 _0088_
*102 _0089_
*103 _0090_
*104 _0091_
*105 _0092_
*106 _0093_
*107 _0096_
*108 _0097_
*109 _0098_
*110 _0099_
*111 _0102_
*112 _0105_
*113 _0108_
*114 _0110_
*115 _0113_
*116 _0116_
*117 _0119_
*118 _0123_
*119 _0126_
*120 _0129_
*121 _0132_
*122 _0135_
*123 _0138_
*124 _0140_
*125 _0143_
*126 _0146_
*127 _0149_
*128 _0153_
*129 _0156_
*130 _0159_
*131 _0161_
*132 _0162_
*133 _0163_
*134 _0164_
*135 _0165_
*136 _0166_
*137 _0167_
*138 _0168_
*139 _0169_
*140 _0170_
*141 _0171_
*142 _0172_
*143 _0173_
*144 _0174_
*145 _0175_
*146 _0176_
*147 _0177_
*148 _0178_
*149 _0179_
*150 _0180_
*151 _0181_
*152 _0182_
*153 _0183_
*154 _0184_
*155 _0185_
*156 _0186_
*157 _0187_
*158 _0188_
*159 _0189_
*160 _0190_
*161 _0191_
*162 _0192_
*163 _0193_
*164 _0194_
*165 _0195_
*166 _0196_
*167 _0197_
*168 _0198_
*169 _0199_
*170 _0200_
*171 _0201_
*172 _0202_
*173 _0203_
*174 _0204_
*175 _0205_
*176 _0206_
*177 _0207_
*178 _0208_
*179 _0209_
*180 _0210_
*181 _0211_
*182 _0212_
*183 _0213_
*184 _0214_
*185 _0215_
*186 _0216_
*187 _0217_
*188 _0218_
*189 _0219_
*190 _0220_
*191 _0221_
*192 _0222_
*193 _0223_
*194 _0224_
*195 _0225_
*196 _0226_
*197 _0227_
*198 _0228_
*199 _0229_
*200 _0230_
*201 _0231_
*202 _0232_
*203 _0233_
*204 _0234_
*205 _0235_
*206 _0236_
*207 _0237_
*208 _0238_
*209 _0239_
*210 _0240_
*211 _0241_
*212 _0242_
*213 _0243_
*214 _0244_
*215 _0245_
*216 _0246_
*217 _0247_
*218 _0248_
*219 _0249_
*220 _0250_
*221 _0251_
*222 _0252_
*223 _0253_
*224 _0254_
*225 _0255_
*226 _0256_
*227 _0257_
*228 _0258_
*229 _0259_
*230 _0260_
*231 _0261_
*232 _0262_
*233 _0263_
*234 _0264_
*235 _0265_
*236 _0266_
*237 _0267_
*238 _0268_
*239 _0269_
*240 _0270_
*241 _0271_
*242 _0272_
*243 _0273_
*244 _0274_
*245 _0275_
*246 _0276_
*247 _0277_
*248 _0278_
*249 _0279_
*250 _0280_
*251 _0281_
*252 _0282_
*253 _0283_
*254 _0284_
*255 _0285_
*256 _0286_
*257 _0287_
*258 _0288_
*259 _0289_
*260 _0290_
*261 _0291_
*262 _0292_
*263 _0293_
*264 _0294_
*265 _0295_
*266 _0296_
*267 _0297_
*268 _0298_
*269 _0299_
*270 _0300_
*271 _0301_
*272 _0302_
*273 _0303_
*274 _0304_
*275 _0305_
*276 _0306_
*277 _0307_
*278 _0308_
*279 _0309_
*280 _0310_
*281 _0311_
*282 _0312_
*283 _0313_
*284 _0314_
*285 _0315_
*286 _0316_
*287 _0317_
*288 _0318_
*289 _0319_
*290 _0320_
*291 _0321_
*292 _0322_
*293 _0323_
*294 _0324_
*295 _0325_
*296 _0326_
*297 _0327_
*298 _0328_
*299 _0329_
*300 _0330_
*301 _0331_
*302 _0332_
*303 _0333_
*304 _0334_
*305 _0335_
*306 _0336_
*307 _0337_
*308 _0338_
*309 _0339_
*310 _0340_
*311 _0341_
*312 _0342_
*313 _0343_
*314 _0344_
*315 _0345_
*316 _0346_
*317 _0347_
*318 _0348_
*319 _0349_
*320 _0350_
*321 _0351_
*322 _0352_
*323 _0353_
*324 _0354_
*325 _0355_
*326 _0356_
*327 _0357_
*328 _0358_
*329 _0359_
*330 _0360_
*331 _0361_
*332 _0362_
*333 _0363_
*334 _0364_
*335 _0365_
*336 _0366_
*337 _0367_
*338 _0368_
*339 _0369_
*340 _0370_
*341 _0371_
*342 _0372_
*343 _0373_
*344 _0374_
*345 _0375_
*346 _0376_
*347 _0377_
*348 _0378_
*349 _0379_
*350 _0380_
*351 _0381_
*352 _0382_
*353 _0383_
*354 _0384_
*355 _0385_
*356 _0386_
*357 _0387_
*358 _0388_
*359 _0389_
*360 _0390_
*361 _0391_
*362 _0392_
*363 _0393_
*364 _0394_
*365 _0395_
*366 _0396_
*367 _0397_
*368 _0398_
*369 _0399_
*370 _0400_
*371 _0401_
*372 _0402_
*373 _0403_
*374 _0404_
*375 _0405_
*376 _0406_
*377 _0407_
*378 _0408_
*379 _0409_
*380 _0410_
*381 _0411_
*382 _0412_
*383 _0413_
*384 _0414_
*385 _0415_
*386 _0416_
*387 _0417_
*388 _0418_
*389 _0419_
*390 _0420_
*391 _0421_
*392 _0422_
*393 _0423_
*394 _0424_
*395 _0425_
*396 _0426_
*397 _0427_
*398 _0428_
*399 _0429_
*400 _0430_
*401 _0431_
*402 _0432_
*403 _0433_
*404 _0434_
*405 _0435_
*406 _0436_
*407 _0437_
*408 _0438_
*409 _0439_
*410 _0440_
*411 _0441_
*412 _0442_
*413 _0443_
*414 _0444_
*415 clknet_0__0301_
*416 clknet_0__0304_
*417 clknet_0__0305_
*418 clknet_0__0306_
*419 clknet_0__0307_
*420 clknet_0__0308_
*421 clknet_0__0311_
*422 clknet_0_clk_master
*423 clknet_0_w0\.cclk_I
*424 clknet_1_0__leaf__0301_
*425 clknet_1_0__leaf__0304_
*426 clknet_1_0__leaf__0305_
*427 clknet_1_0__leaf__0306_
*428 clknet_1_0__leaf__0307_
*429 clknet_1_0__leaf__0308_
*430 clknet_1_0__leaf__0311_
*431 clknet_1_1__leaf__0301_
*432 clknet_1_1__leaf__0304_
*433 clknet_1_1__leaf__0305_
*434 clknet_1_1__leaf__0306_
*435 clknet_1_1__leaf__0307_
*436 clknet_1_1__leaf__0308_
*437 clknet_1_1__leaf__0311_
*438 clknet_2_0__leaf_clk_master
*439 clknet_2_0__leaf_w0\.cclk_I
*440 clknet_2_1__leaf_clk_master
*441 clknet_2_1__leaf_w0\.cclk_I
*442 clknet_2_2__leaf_clk_master
*443 clknet_2_2__leaf_w0\.cclk_I
*444 clknet_2_3__leaf_clk_master
*445 clknet_2_3__leaf_w0\.cclk_I
*446 net1
*447 net10
*448 net100
*449 net101
*450 net102
*451 net103
*452 net104
*453 net105
*454 net106
*455 net107
*456 net108
*457 net109
*458 net11
*459 net110
*460 net111
*461 net112
*462 net113
*463 net114
*464 net115
*465 net116
*466 net117
*467 net118
*468 net119
*469 net12
*470 net120
*471 net121
*472 net122
*473 net123
*474 net124
*475 net13
*476 net14
*477 net15
*478 net16
*479 net17
*480 net18
*481 net19
*482 net2
*483 net20
*484 net21
*485 net22
*486 net23
*487 net24
*488 net25
*489 net26
*490 net27
*491 net28
*492 net29
*493 net3
*494 net30
*495 net31
*496 net32
*497 net33
*498 net34
*499 net35
*500 net36
*501 net37
*502 net38
*503 net39
*504 net4
*505 net40
*506 net41
*507 net42
*508 net43
*509 net44
*510 net45
*511 net46
*512 net47
*513 net48
*514 net49
*515 net5
*516 net50
*517 net51
*518 net52
*519 net53
*520 net54
*521 net55
*522 net56
*523 net57
*524 net58
*525 net59
*526 net6
*527 net60
*528 net61
*529 net62
*530 net63
*531 net64
*532 net65
*533 net66
*534 net67
*535 net68
*536 net69
*537 net7
*538 net70
*539 net71
*540 net72
*541 net73
*542 net74
*543 net75
*544 net76
*545 net77
*546 net78
*547 net79
*548 net8
*549 net80
*550 net81
*551 net82
*552 net83
*553 net84
*554 net85
*555 net86
*556 net87
*557 net88
*558 net89
*559 net9
*560 net90
*561 net91
*562 net92
*563 net93
*564 net94
*565 net95
*566 net96
*567 net97
*568 net98
*569 net99
*570 w0\.POL_EVE_I\.comp_out
*571 w0\.POL_EVE_I\.dff1\.q
*572 w0\.POL_EVE_I\.dff2\.q
*573 w0\.POL_EVE_I\.dff3\.q
*574 w0\.POL_EVE_I\.eve
*575 w0\.POL_EVE_I\.polxevent
*576 w0\.POL_EVE_Q\.comp_out
*577 w0\.POL_EVE_Q\.dff1\.q
*578 w0\.POL_EVE_Q\.dff2\.q
*579 w0\.POL_EVE_Q\.dff3\.q
*580 w0\.POL_EVE_Q\.eve
*581 w0\.POL_EVE_Q\.polxevent
*582 w0\.bank1\.cos_out
*583 w0\.bank1\.sin_out
*584 w0\.cclk_I
*585 w0\.div2\.dff\.d
*586 w0\.div2\.dff\.q
*587 w0\.fb1_I
*588 w0\.fb1_Q
*589 w0\.fb_block_I\.gs_f\.fb_gray_selector_loop\[0\]\.dl\.d
*590 w0\.fb_block_I\.gs_f\.fb_gray_selector_loop\[0\]\.eff3\.d1
*591 w0\.fb_block_I\.gs_f\.fb_gray_selector_loop\[0\]\.eff3\.d2
*592 w0\.fb_block_I\.gs_f\.fb_gray_selector_loop\[0\]\.eff3\.dff\.q
*593 w0\.fb_block_I\.gs_f\.fb_gray_selector_loop\[0\]\.eff3\.dff_n\.q
*594 w0\.fb_block_I\.gs_f\.fb_gray_selector_loop\[0\]\.t_buf\.ctrlb
*595 w0\.fb_block_I\.gs_f\.fb_gray_selector_loop\[0\]\.t_buf\.in
*596 w0\.fb_block_I\.gs_f\.fb_gray_selector_loop\[1\]\.eff3\.d1
*597 w0\.fb_block_I\.gs_f\.fb_gray_selector_loop\[1\]\.eff3\.d2
*598 w0\.fb_block_I\.gs_f\.fb_gray_selector_loop\[1\]\.eff3\.dff\.q
*599 w0\.fb_block_I\.gs_f\.fb_gray_selector_loop\[1\]\.eff3\.dff_n\.q
*600 w0\.fb_block_I\.gs_f\.fb_gray_selector_loop\[1\]\.t_buf\.ctrlb
*601 w0\.fb_block_I\.gs_f\.fb_gray_selector_loop\[1\]\.t_buf\.in
*602 w0\.fb_block_I\.gs_f\.fb_gray_selector_loop\[2\]\.eff3\.d1
*603 w0\.fb_block_I\.gs_f\.fb_gray_selector_loop\[2\]\.eff3\.d2
*604 w0\.fb_block_I\.gs_f\.fb_gray_selector_loop\[2\]\.eff3\.dff\.q
*605 w0\.fb_block_I\.gs_f\.fb_gray_selector_loop\[2\]\.eff3\.dff_n\.q
*606 w0\.fb_block_I\.gs_f\.fb_gray_selector_loop\[2\]\.t_buf\.ctrlb
*607 w0\.fb_block_I\.gs_f\.fb_gray_selector_loop\[2\]\.t_buf\.in
*608 w0\.fb_block_I\.gs_f\.fb_gray_selector_loop\[3\]\.eff3\.d1
*609 w0\.fb_block_I\.gs_f\.fb_gray_selector_loop\[3\]\.eff3\.d2
*610 w0\.fb_block_I\.gs_f\.fb_gray_selector_loop\[3\]\.eff3\.dff\.q
*611 w0\.fb_block_I\.gs_f\.fb_gray_selector_loop\[3\]\.eff3\.dff_n\.q
*612 w0\.fb_block_I\.gs_f\.fb_gray_selector_loop\[3\]\.t_buf\.ctrlb
*613 w0\.fb_block_I\.gs_f\.fb_gray_selector_loop\[3\]\.t_buf\.in
*614 w0\.fb_block_I\.gs_f\.fb_gray_selector_loop\[4\]\.eff3\.d1
*615 w0\.fb_block_I\.gs_f\.fb_gray_selector_loop\[4\]\.eff3\.d2
*616 w0\.fb_block_I\.gs_f\.fb_gray_selector_loop\[4\]\.eff3\.dff\.q
*617 w0\.fb_block_I\.gs_f\.fb_gray_selector_loop\[4\]\.eff3\.dff_n\.q
*618 w0\.fb_block_I\.gs_f\.fb_gray_selector_loop\[4\]\.t_buf\.ctrlb
*619 w0\.fb_block_I\.gs_f\.fb_gray_selector_loop\[4\]\.t_buf\.in
*620 w0\.fb_block_I\.gs_f\.fb_gray_selector_loop\[5\]\.eff3\.d1
*621 w0\.fb_block_I\.gs_f\.fb_gray_selector_loop\[5\]\.eff3\.d2
*622 w0\.fb_block_I\.gs_f\.fb_gray_selector_loop\[5\]\.eff3\.dff\.q
*623 w0\.fb_block_I\.gs_f\.fb_gray_selector_loop\[5\]\.eff3\.dff_n\.q
*624 w0\.fb_block_I\.gs_f\.fb_gray_selector_loop\[5\]\.t_buf\.ctrlb
*625 w0\.fb_block_I\.gs_f\.fb_gray_selector_loop\[5\]\.t_buf\.in
*626 w0\.fb_block_I\.gs_f\.fb_gray_selector_loop\[6\]\.eff3\.d1
*627 w0\.fb_block_I\.gs_f\.fb_gray_selector_loop\[6\]\.eff3\.d2
*628 w0\.fb_block_I\.gs_f\.fb_gray_selector_loop\[6\]\.eff3\.dff\.q
*629 w0\.fb_block_I\.gs_f\.fb_gray_selector_loop\[6\]\.eff3\.dff_n\.q
*630 w0\.fb_block_I\.gs_f\.fb_gray_selector_loop\[6\]\.t_buf\.ctrlb
*631 w0\.fb_block_I\.gs_f\.fb_gray_selector_loop\[6\]\.t_buf\.in
*632 w0\.fb_block_I\.gs_f\.fb_gray_selector_loop\[7\]\.eff3\.d1
*633 w0\.fb_block_I\.gs_f\.fb_gray_selector_loop\[7\]\.eff3\.d2
*634 w0\.fb_block_I\.gs_f\.fb_gray_selector_loop\[7\]\.eff3\.dff\.q
*635 w0\.fb_block_I\.gs_f\.fb_gray_selector_loop\[7\]\.eff3\.dff_n\.q
*636 w0\.fb_block_I\.gs_f\.fb_gray_selector_loop\[7\]\.t_buf\.ctrlb
*637 w0\.fb_block_I\.gs_f\.fb_gray_selector_loop\[7\]\.t_buf\.in
*638 w0\.fb_block_I\.gs_f\.fb_gray_selector_loop\[8\]\.eff3\.d1
*639 w0\.fb_block_I\.gs_f\.fb_gray_selector_loop\[8\]\.eff3\.d2
*640 w0\.fb_block_I\.gs_f\.fb_gray_selector_loop\[8\]\.eff3\.dff\.q
*641 w0\.fb_block_I\.gs_f\.fb_gray_selector_loop\[8\]\.eff3\.dff_n\.q
*642 w0\.fb_block_I\.gs_f\.fb_gray_selector_loop\[8\]\.t_buf\.ctrlb
*643 w0\.fb_block_I\.gs_f\.fb_gray_selector_loop\[8\]\.t_buf\.in
*644 w0\.fb_block_I\.gs_f\.fb_gray_selector_loop\[9\]\.eff3\.d1
*645 w0\.fb_block_I\.gs_f\.fb_gray_selector_loop\[9\]\.eff3\.d2
*646 w0\.fb_block_I\.gs_f\.fb_gray_selector_loop\[9\]\.eff3\.dff\.q
*647 w0\.fb_block_I\.gs_f\.fb_gray_selector_loop\[9\]\.eff3\.dff_n\.q
*648 w0\.fb_block_I\.gs_f\.fb_gray_selector_loop\[9\]\.t_buf\.ctrlb
*649 w0\.fb_block_I\.gs_f\.fb_gray_selector_loop\[9\]\.t_buf\.in
*650 w0\.fb_block_I\.ud_c\.bin_counter\[0\]\.cc\.q
*651 w0\.fb_block_I\.ud_c\.bin_counter\[0\]\.cc\.tff1\.d
*652 w0\.fb_block_I\.ud_c\.bin_counter\[10\]\.cc\.tff1\.d
*653 w0\.fb_block_I\.ud_c\.bin_counter\[11\]\.cc\.tff1\.d
*654 w0\.fb_block_I\.ud_c\.bin_counter\[12\]\.cc\.tff1\.d
*655 w0\.fb_block_I\.ud_c\.bin_counter\[13\]\.cc\.tff1\.d
*656 w0\.fb_block_I\.ud_c\.bin_counter\[1\]\.cc\.q
*657 w0\.fb_block_I\.ud_c\.bin_counter\[1\]\.cc\.tff1\.d
*658 w0\.fb_block_I\.ud_c\.bin_counter\[2\]\.cc\.q
*659 w0\.fb_block_I\.ud_c\.bin_counter\[2\]\.cc\.tff1\.d
*660 w0\.fb_block_I\.ud_c\.bin_counter\[3\]\.cc\.q
*661 w0\.fb_block_I\.ud_c\.bin_counter\[3\]\.cc\.tff1\.d
*662 w0\.fb_block_I\.ud_c\.bin_counter\[4\]\.cc\.q
*663 w0\.fb_block_I\.ud_c\.bin_counter\[4\]\.cc\.tff1\.d
*664 w0\.fb_block_I\.ud_c\.bin_counter\[5\]\.cc\.tff1\.d
*665 w0\.fb_block_I\.ud_c\.bin_counter\[6\]\.cc\.tff1\.d
*666 w0\.fb_block_I\.ud_c\.bin_counter\[7\]\.cc\.tff1\.d
*667 w0\.fb_block_I\.ud_c\.bin_counter\[8\]\.cc\.tff1\.d
*668 w0\.fb_block_I\.ud_c\.bin_counter\[9\]\.cc\.tff1\.d
*669 w0\.fb_block_I\.ud_c\.cc1\.q
*670 w0\.fb_block_I\.ud_c\.cc1\.tff1\.d
*671 w0\.fb_block_I\.ud_c\.tff_end\.d
*672 w0\.fb_block_Q\.gs_f\.fb_gray_selector_loop\[0\]\.dl\.d
*673 w0\.fb_block_Q\.gs_f\.fb_gray_selector_loop\[0\]\.eff3\.d1
*674 w0\.fb_block_Q\.gs_f\.fb_gray_selector_loop\[0\]\.eff3\.d2
*675 w0\.fb_block_Q\.gs_f\.fb_gray_selector_loop\[0\]\.eff3\.dff\.q
*676 w0\.fb_block_Q\.gs_f\.fb_gray_selector_loop\[0\]\.eff3\.dff_n\.q
*677 w0\.fb_block_Q\.gs_f\.fb_gray_selector_loop\[0\]\.t_buf\.ctrlb
*678 w0\.fb_block_Q\.gs_f\.fb_gray_selector_loop\[0\]\.t_buf\.in
*679 w0\.fb_block_Q\.gs_f\.fb_gray_selector_loop\[1\]\.eff3\.d1
*680 w0\.fb_block_Q\.gs_f\.fb_gray_selector_loop\[1\]\.eff3\.d2
*681 w0\.fb_block_Q\.gs_f\.fb_gray_selector_loop\[1\]\.eff3\.dff\.q
*682 w0\.fb_block_Q\.gs_f\.fb_gray_selector_loop\[1\]\.eff3\.dff_n\.q
*683 w0\.fb_block_Q\.gs_f\.fb_gray_selector_loop\[1\]\.t_buf\.ctrlb
*684 w0\.fb_block_Q\.gs_f\.fb_gray_selector_loop\[1\]\.t_buf\.in
*685 w0\.fb_block_Q\.gs_f\.fb_gray_selector_loop\[2\]\.eff3\.d1
*686 w0\.fb_block_Q\.gs_f\.fb_gray_selector_loop\[2\]\.eff3\.d2
*687 w0\.fb_block_Q\.gs_f\.fb_gray_selector_loop\[2\]\.eff3\.dff\.q
*688 w0\.fb_block_Q\.gs_f\.fb_gray_selector_loop\[2\]\.eff3\.dff_n\.q
*689 w0\.fb_block_Q\.gs_f\.fb_gray_selector_loop\[2\]\.t_buf\.ctrlb
*690 w0\.fb_block_Q\.gs_f\.fb_gray_selector_loop\[2\]\.t_buf\.in
*691 w0\.fb_block_Q\.gs_f\.fb_gray_selector_loop\[3\]\.eff3\.d1
*692 w0\.fb_block_Q\.gs_f\.fb_gray_selector_loop\[3\]\.eff3\.d2
*693 w0\.fb_block_Q\.gs_f\.fb_gray_selector_loop\[3\]\.eff3\.dff\.q
*694 w0\.fb_block_Q\.gs_f\.fb_gray_selector_loop\[3\]\.eff3\.dff_n\.q
*695 w0\.fb_block_Q\.gs_f\.fb_gray_selector_loop\[3\]\.t_buf\.ctrlb
*696 w0\.fb_block_Q\.gs_f\.fb_gray_selector_loop\[3\]\.t_buf\.in
*697 w0\.fb_block_Q\.gs_f\.fb_gray_selector_loop\[4\]\.eff3\.d1
*698 w0\.fb_block_Q\.gs_f\.fb_gray_selector_loop\[4\]\.eff3\.d2
*699 w0\.fb_block_Q\.gs_f\.fb_gray_selector_loop\[4\]\.eff3\.dff\.q
*700 w0\.fb_block_Q\.gs_f\.fb_gray_selector_loop\[4\]\.eff3\.dff_n\.q
*701 w0\.fb_block_Q\.gs_f\.fb_gray_selector_loop\[4\]\.t_buf\.ctrlb
*702 w0\.fb_block_Q\.gs_f\.fb_gray_selector_loop\[4\]\.t_buf\.in
*703 w0\.fb_block_Q\.gs_f\.fb_gray_selector_loop\[5\]\.eff3\.d1
*704 w0\.fb_block_Q\.gs_f\.fb_gray_selector_loop\[5\]\.eff3\.d2
*705 w0\.fb_block_Q\.gs_f\.fb_gray_selector_loop\[5\]\.eff3\.dff\.q
*706 w0\.fb_block_Q\.gs_f\.fb_gray_selector_loop\[5\]\.eff3\.dff_n\.q
*707 w0\.fb_block_Q\.gs_f\.fb_gray_selector_loop\[5\]\.t_buf\.ctrlb
*708 w0\.fb_block_Q\.gs_f\.fb_gray_selector_loop\[5\]\.t_buf\.in
*709 w0\.fb_block_Q\.gs_f\.fb_gray_selector_loop\[6\]\.eff3\.d1
*710 w0\.fb_block_Q\.gs_f\.fb_gray_selector_loop\[6\]\.eff3\.d2
*711 w0\.fb_block_Q\.gs_f\.fb_gray_selector_loop\[6\]\.eff3\.dff\.q
*712 w0\.fb_block_Q\.gs_f\.fb_gray_selector_loop\[6\]\.eff3\.dff_n\.q
*713 w0\.fb_block_Q\.gs_f\.fb_gray_selector_loop\[6\]\.t_buf\.ctrlb
*714 w0\.fb_block_Q\.gs_f\.fb_gray_selector_loop\[6\]\.t_buf\.in
*715 w0\.fb_block_Q\.gs_f\.fb_gray_selector_loop\[7\]\.eff3\.d1
*716 w0\.fb_block_Q\.gs_f\.fb_gray_selector_loop\[7\]\.eff3\.d2
*717 w0\.fb_block_Q\.gs_f\.fb_gray_selector_loop\[7\]\.eff3\.dff\.q
*718 w0\.fb_block_Q\.gs_f\.fb_gray_selector_loop\[7\]\.eff3\.dff_n\.q
*719 w0\.fb_block_Q\.gs_f\.fb_gray_selector_loop\[7\]\.t_buf\.ctrlb
*720 w0\.fb_block_Q\.gs_f\.fb_gray_selector_loop\[7\]\.t_buf\.in
*721 w0\.fb_block_Q\.gs_f\.fb_gray_selector_loop\[8\]\.eff3\.d1
*722 w0\.fb_block_Q\.gs_f\.fb_gray_selector_loop\[8\]\.eff3\.d2
*723 w0\.fb_block_Q\.gs_f\.fb_gray_selector_loop\[8\]\.eff3\.dff\.q
*724 w0\.fb_block_Q\.gs_f\.fb_gray_selector_loop\[8\]\.eff3\.dff_n\.q
*725 w0\.fb_block_Q\.gs_f\.fb_gray_selector_loop\[8\]\.t_buf\.ctrlb
*726 w0\.fb_block_Q\.gs_f\.fb_gray_selector_loop\[8\]\.t_buf\.in
*727 w0\.fb_block_Q\.gs_f\.fb_gray_selector_loop\[9\]\.eff3\.d1
*728 w0\.fb_block_Q\.gs_f\.fb_gray_selector_loop\[9\]\.eff3\.d2
*729 w0\.fb_block_Q\.gs_f\.fb_gray_selector_loop\[9\]\.eff3\.dff\.q
*730 w0\.fb_block_Q\.gs_f\.fb_gray_selector_loop\[9\]\.eff3\.dff_n\.q
*731 w0\.fb_block_Q\.gs_f\.fb_gray_selector_loop\[9\]\.t_buf\.ctrlb
*732 w0\.fb_block_Q\.gs_f\.fb_gray_selector_loop\[9\]\.t_buf\.in
*733 w0\.fb_block_Q\.ud_c\.bin_counter\[0\]\.cc\.q
*734 w0\.fb_block_Q\.ud_c\.bin_counter\[0\]\.cc\.tff1\.d
*735 w0\.fb_block_Q\.ud_c\.bin_counter\[10\]\.cc\.tff1\.d
*736 w0\.fb_block_Q\.ud_c\.bin_counter\[11\]\.cc\.tff1\.d
*737 w0\.fb_block_Q\.ud_c\.bin_counter\[12\]\.cc\.tff1\.d
*738 w0\.fb_block_Q\.ud_c\.bin_counter\[13\]\.cc\.tff1\.d
*739 w0\.fb_block_Q\.ud_c\.bin_counter\[1\]\.cc\.q
*740 w0\.fb_block_Q\.ud_c\.bin_counter\[1\]\.cc\.tff1\.d
*741 w0\.fb_block_Q\.ud_c\.bin_counter\[2\]\.cc\.q
*742 w0\.fb_block_Q\.ud_c\.bin_counter\[2\]\.cc\.tff1\.d
*743 w0\.fb_block_Q\.ud_c\.bin_counter\[3\]\.cc\.q
*744 w0\.fb_block_Q\.ud_c\.bin_counter\[3\]\.cc\.tff1\.d
*745 w0\.fb_block_Q\.ud_c\.bin_counter\[4\]\.cc\.q
*746 w0\.fb_block_Q\.ud_c\.bin_counter\[4\]\.cc\.tff1\.d
*747 w0\.fb_block_Q\.ud_c\.bin_counter\[5\]\.cc\.tff1\.d
*748 w0\.fb_block_Q\.ud_c\.bin_counter\[6\]\.cc\.tff1\.d
*749 w0\.fb_block_Q\.ud_c\.bin_counter\[7\]\.cc\.tff1\.d
*750 w0\.fb_block_Q\.ud_c\.bin_counter\[8\]\.cc\.tff1\.d
*751 w0\.fb_block_Q\.ud_c\.bin_counter\[9\]\.cc\.tff1\.d
*752 w0\.fb_block_Q\.ud_c\.cc1\.q
*753 w0\.fb_block_Q\.ud_c\.cc1\.tff1\.d
*754 w0\.fb_block_Q\.ud_c\.tff_end\.d
*755 w0\.gray_gen\.cell2\.eff_gray\.d1
*756 w0\.gray_gen\.cell2\.eff_gray\.d2
*757 w0\.gray_gen\.cell2\.eff_gray\.dff\.q
*758 w0\.gray_gen\.cell2\.eff_gray\.dff_n\.q
*759 w0\.gray_gen\.first_gray\.eff\.d1
*760 w0\.gray_gen\.first_gray\.eff\.d2
*761 w0\.gray_gen\.first_gray\.eff\.dff\.q
*762 w0\.gray_gen\.first_gray\.eff\.dff_n\.q
*763 w0\.gray_gen\.first_gray\.t_ff\.eff_gray\.d1
*764 w0\.gray_gen\.first_gray\.t_ff\.eff_gray\.d2
*765 w0\.gray_gen\.first_gray\.t_ff\.eff_gray\.dff\.q
*766 w0\.gray_gen\.first_gray\.t_ff\.eff_gray\.dff_n\.q
*767 w0\.gray_gen\.gray_loop\[1\]\.gray\.eff_gray\.d1
*768 w0\.gray_gen\.gray_loop\[1\]\.gray\.eff_gray\.d2
*769 w0\.gray_gen\.gray_loop\[1\]\.gray\.eff_gray\.dff\.q
*770 w0\.gray_gen\.gray_loop\[1\]\.gray\.eff_gray\.dff_n\.q
*771 w0\.gray_gen\.gray_loop\[2\]\.gray\.eff_gray\.d1
*772 w0\.gray_gen\.gray_loop\[2\]\.gray\.eff_gray\.d2
*773 w0\.gray_gen\.gray_loop\[2\]\.gray\.eff_gray\.dff\.q
*774 w0\.gray_gen\.gray_loop\[2\]\.gray\.eff_gray\.dff_n\.q
*775 w0\.gray_gen\.gray_loop\[3\]\.gray\.eff_gray\.d1
*776 w0\.gray_gen\.gray_loop\[3\]\.gray\.eff_gray\.d2
*777 w0\.gray_gen\.gray_loop\[3\]\.gray\.eff_gray\.dff\.q
*778 w0\.gray_gen\.gray_loop\[3\]\.gray\.eff_gray\.dff_n\.q
*779 w0\.gray_gen\.gray_loop\[4\]\.gray\.eff_gray\.d1
*780 w0\.gray_gen\.gray_loop\[4\]\.gray\.eff_gray\.d2
*781 w0\.gray_gen\.gray_loop\[4\]\.gray\.eff_gray\.dff\.q
*782 w0\.gray_gen\.gray_loop\[4\]\.gray\.eff_gray\.dff_n\.q
*783 w0\.gray_gen\.gray_loop\[5\]\.gray\.eff_gray\.d1
*784 w0\.gray_gen\.gray_loop\[5\]\.gray\.eff_gray\.d2
*785 w0\.gray_gen\.gray_loop\[5\]\.gray\.eff_gray\.dff\.q
*786 w0\.gray_gen\.gray_loop\[5\]\.gray\.eff_gray\.dff_n\.q
*787 w0\.gray_gen\.gray_loop\[5\]\.gray\.inv_out
*788 w0\.gray_gen\.gray_loop\[6\]\.gray\.eff_gray\.d1
*789 w0\.gray_gen\.gray_loop\[6\]\.gray\.eff_gray\.d2
*790 w0\.gray_gen\.gray_loop\[6\]\.gray\.eff_gray\.dff\.q
*791 w0\.gray_gen\.gray_loop\[6\]\.gray\.eff_gray\.dff_n\.q
*792 w0\.gray_gen\.gray_loop\[6\]\.gray\.inv_out
*793 w0\.gray_gen\.gray_loop\[7\]\.gray\.eff_gray\.d1
*794 w0\.gray_gen\.gray_loop\[7\]\.gray\.eff_gray\.d2
*795 w0\.gray_gen\.gray_loop\[7\]\.gray\.eff_gray\.dff\.q
*796 w0\.gray_gen\.gray_loop\[7\]\.gray\.eff_gray\.dff_n\.q
*797 w0\.gray_gen\.gray_loop\[7\]\.gray\.inv_out
*798 w0\.gray_gen\.gray_loop\[8\]\.gray\.eff_gray\.d1
*799 w0\.gray_gen\.gray_loop\[8\]\.gray\.eff_gray\.d2
*800 w0\.gray_gen\.gray_loop\[8\]\.gray\.eff_gray\.dff\.q
*801 w0\.gray_gen\.gray_loop\[8\]\.gray\.eff_gray\.dff_n\.q
*802 w0\.gray_gen\.gray_loop\[8\]\.gray\.inv_out
*803 w0\.gray_gen\.gray_loop\[9\]\.gray\.eff_gray\.d1
*804 w0\.gray_gen\.gray_loop\[9\]\.gray\.eff_gray\.d2
*805 w0\.gray_gen\.gray_loop\[9\]\.gray\.eff_gray\.dff\.q
*806 w0\.gray_gen\.gray_loop\[9\]\.gray\.eff_gray\.dff_n\.q
*807 w0\.gray_gen\.sine_cell\.eff_gray\.d1
*808 w0\.gray_gen\.sine_cell\.eff_gray\.d2
*809 w0\.gray_gen\.sine_cell\.eff_gray\.dff\.q
*810 w0\.gray_gen\.sine_cell\.eff_gray\.dff_n\.q
*811 w0\.ro_block_I\.out_mux_eve
*812 w0\.ro_block_I\.out_mux_pol_eve
*813 w0\.ro_block_I\.ro_pol\.eff\.eff_gray\.d1
*814 w0\.ro_block_I\.ro_pol\.eff\.eff_gray\.d2
*815 w0\.ro_block_I\.ro_pol\.eff\.eff_gray\.dff\.q
*816 w0\.ro_block_I\.ro_pol\.eff\.eff_gray\.dff_n\.q
*817 w0\.ro_block_I\.ro_pol\.eff_outb
*818 w0\.ro_block_I\.ro_pol_eve\.eff\.eff_gray\.d1
*819 w0\.ro_block_I\.ro_pol_eve\.eff\.eff_gray\.d2
*820 w0\.ro_block_I\.ro_pol_eve\.eff\.eff_gray\.dff\.q
*821 w0\.ro_block_I\.ro_pol_eve\.eff\.eff_gray\.dff_n\.q
*822 w0\.ro_block_I\.ro_pol_eve\.eff_outb
*823 w0\.ro_block_Q\.out_mux_eve
*824 w0\.ro_block_Q\.out_mux_pol_eve
*825 w0\.ro_block_Q\.ro_pol\.eff\.eff_gray\.d1
*826 w0\.ro_block_Q\.ro_pol\.eff\.eff_gray\.d2
*827 w0\.ro_block_Q\.ro_pol\.eff\.eff_gray\.dff\.q
*828 w0\.ro_block_Q\.ro_pol\.eff\.eff_gray\.dff_n\.q
*829 w0\.ro_block_Q\.ro_pol\.eff_outb
*830 w0\.ro_block_Q\.ro_pol_eve\.eff\.eff_gray\.d1
*831 w0\.ro_block_Q\.ro_pol_eve\.eff\.eff_gray\.d2
*832 w0\.ro_block_Q\.ro_pol_eve\.eff\.eff_gray\.dff\.q
*833 w0\.ro_block_Q\.ro_pol_eve\.eff\.eff_gray\.dff_n\.q
*834 w0\.ro_block_Q\.ro_pol_eve\.eff_outb
*835 wrapper_cell_loop\[0\]\.w1\.POL_EVE_I\.comp_out
*836 wrapper_cell_loop\[0\]\.w1\.POL_EVE_I\.dff1\.q
*837 wrapper_cell_loop\[0\]\.w1\.POL_EVE_I\.dff2\.q
*838 wrapper_cell_loop\[0\]\.w1\.POL_EVE_I\.dff3\.q
*839 wrapper_cell_loop\[0\]\.w1\.POL_EVE_I\.eve
*840 wrapper_cell_loop\[0\]\.w1\.POL_EVE_I\.polxevent
*841 wrapper_cell_loop\[0\]\.w1\.POL_EVE_Q\.comp_out
*842 wrapper_cell_loop\[0\]\.w1\.POL_EVE_Q\.dff1\.q
*843 wrapper_cell_loop\[0\]\.w1\.POL_EVE_Q\.dff2\.q
*844 wrapper_cell_loop\[0\]\.w1\.POL_EVE_Q\.dff3\.q
*845 wrapper_cell_loop\[0\]\.w1\.POL_EVE_Q\.eve
*846 wrapper_cell_loop\[0\]\.w1\.POL_EVE_Q\.polxevent
*847 wrapper_cell_loop\[0\]\.w1\.bank1\.cos_out
*848 wrapper_cell_loop\[0\]\.w1\.bank1\.sin_out
*849 wrapper_cell_loop\[0\]\.w1\.cclk_I
*850 wrapper_cell_loop\[0\]\.w1\.div2\.dff\.d
*851 wrapper_cell_loop\[0\]\.w1\.div2\.dff\.q
*852 wrapper_cell_loop\[0\]\.w1\.fb1_I
*853 wrapper_cell_loop\[0\]\.w1\.fb1_Q
*854 wrapper_cell_loop\[0\]\.w1\.fb_block_I\.gs_f\.fb_gray_selector_loop\[0\]\.dl\.d
*855 wrapper_cell_loop\[0\]\.w1\.fb_block_I\.gs_f\.fb_gray_selector_loop\[0\]\.eff3\.d1
*856 wrapper_cell_loop\[0\]\.w1\.fb_block_I\.gs_f\.fb_gray_selector_loop\[0\]\.eff3\.d2
*857 wrapper_cell_loop\[0\]\.w1\.fb_block_I\.gs_f\.fb_gray_selector_loop\[0\]\.eff3\.dff\.q
*858 wrapper_cell_loop\[0\]\.w1\.fb_block_I\.gs_f\.fb_gray_selector_loop\[0\]\.eff3\.dff_n\.q
*859 wrapper_cell_loop\[0\]\.w1\.fb_block_I\.gs_f\.fb_gray_selector_loop\[0\]\.t_buf\.ctrlb
*860 wrapper_cell_loop\[0\]\.w1\.fb_block_I\.gs_f\.fb_gray_selector_loop\[0\]\.t_buf\.in
*861 wrapper_cell_loop\[0\]\.w1\.fb_block_I\.gs_f\.fb_gray_selector_loop\[1\]\.eff3\.d1
*862 wrapper_cell_loop\[0\]\.w1\.fb_block_I\.gs_f\.fb_gray_selector_loop\[1\]\.eff3\.d2
*863 wrapper_cell_loop\[0\]\.w1\.fb_block_I\.gs_f\.fb_gray_selector_loop\[1\]\.eff3\.dff\.q
*864 wrapper_cell_loop\[0\]\.w1\.fb_block_I\.gs_f\.fb_gray_selector_loop\[1\]\.eff3\.dff_n\.q
*865 wrapper_cell_loop\[0\]\.w1\.fb_block_I\.gs_f\.fb_gray_selector_loop\[1\]\.t_buf\.ctrlb
*866 wrapper_cell_loop\[0\]\.w1\.fb_block_I\.gs_f\.fb_gray_selector_loop\[1\]\.t_buf\.in
*867 wrapper_cell_loop\[0\]\.w1\.fb_block_I\.gs_f\.fb_gray_selector_loop\[2\]\.eff3\.d1
*868 wrapper_cell_loop\[0\]\.w1\.fb_block_I\.gs_f\.fb_gray_selector_loop\[2\]\.eff3\.d2
*869 wrapper_cell_loop\[0\]\.w1\.fb_block_I\.gs_f\.fb_gray_selector_loop\[2\]\.eff3\.dff\.q
*870 wrapper_cell_loop\[0\]\.w1\.fb_block_I\.gs_f\.fb_gray_selector_loop\[2\]\.eff3\.dff_n\.q
*871 wrapper_cell_loop\[0\]\.w1\.fb_block_I\.gs_f\.fb_gray_selector_loop\[2\]\.t_buf\.ctrlb
*872 wrapper_cell_loop\[0\]\.w1\.fb_block_I\.gs_f\.fb_gray_selector_loop\[2\]\.t_buf\.in
*873 wrapper_cell_loop\[0\]\.w1\.fb_block_I\.gs_f\.fb_gray_selector_loop\[3\]\.eff3\.d1
*874 wrapper_cell_loop\[0\]\.w1\.fb_block_I\.gs_f\.fb_gray_selector_loop\[3\]\.eff3\.d2
*875 wrapper_cell_loop\[0\]\.w1\.fb_block_I\.gs_f\.fb_gray_selector_loop\[3\]\.eff3\.dff\.q
*876 wrapper_cell_loop\[0\]\.w1\.fb_block_I\.gs_f\.fb_gray_selector_loop\[3\]\.eff3\.dff_n\.q
*877 wrapper_cell_loop\[0\]\.w1\.fb_block_I\.gs_f\.fb_gray_selector_loop\[3\]\.t_buf\.ctrlb
*878 wrapper_cell_loop\[0\]\.w1\.fb_block_I\.gs_f\.fb_gray_selector_loop\[3\]\.t_buf\.in
*879 wrapper_cell_loop\[0\]\.w1\.fb_block_I\.gs_f\.fb_gray_selector_loop\[4\]\.eff3\.d1
*880 wrapper_cell_loop\[0\]\.w1\.fb_block_I\.gs_f\.fb_gray_selector_loop\[4\]\.eff3\.d2
*881 wrapper_cell_loop\[0\]\.w1\.fb_block_I\.gs_f\.fb_gray_selector_loop\[4\]\.eff3\.dff\.q
*882 wrapper_cell_loop\[0\]\.w1\.fb_block_I\.gs_f\.fb_gray_selector_loop\[4\]\.eff3\.dff_n\.q
*883 wrapper_cell_loop\[0\]\.w1\.fb_block_I\.gs_f\.fb_gray_selector_loop\[4\]\.t_buf\.ctrlb
*884 wrapper_cell_loop\[0\]\.w1\.fb_block_I\.gs_f\.fb_gray_selector_loop\[4\]\.t_buf\.in
*885 wrapper_cell_loop\[0\]\.w1\.fb_block_I\.gs_f\.fb_gray_selector_loop\[5\]\.eff3\.d1
*886 wrapper_cell_loop\[0\]\.w1\.fb_block_I\.gs_f\.fb_gray_selector_loop\[5\]\.eff3\.d2
*887 wrapper_cell_loop\[0\]\.w1\.fb_block_I\.gs_f\.fb_gray_selector_loop\[5\]\.eff3\.dff\.q
*888 wrapper_cell_loop\[0\]\.w1\.fb_block_I\.gs_f\.fb_gray_selector_loop\[5\]\.eff3\.dff_n\.q
*889 wrapper_cell_loop\[0\]\.w1\.fb_block_I\.gs_f\.fb_gray_selector_loop\[5\]\.t_buf\.ctrlb
*890 wrapper_cell_loop\[0\]\.w1\.fb_block_I\.gs_f\.fb_gray_selector_loop\[5\]\.t_buf\.in
*891 wrapper_cell_loop\[0\]\.w1\.fb_block_I\.gs_f\.fb_gray_selector_loop\[6\]\.eff3\.d1
*892 wrapper_cell_loop\[0\]\.w1\.fb_block_I\.gs_f\.fb_gray_selector_loop\[6\]\.eff3\.d2
*893 wrapper_cell_loop\[0\]\.w1\.fb_block_I\.gs_f\.fb_gray_selector_loop\[6\]\.eff3\.dff\.q
*894 wrapper_cell_loop\[0\]\.w1\.fb_block_I\.gs_f\.fb_gray_selector_loop\[6\]\.eff3\.dff_n\.q
*895 wrapper_cell_loop\[0\]\.w1\.fb_block_I\.gs_f\.fb_gray_selector_loop\[6\]\.t_buf\.ctrlb
*896 wrapper_cell_loop\[0\]\.w1\.fb_block_I\.gs_f\.fb_gray_selector_loop\[6\]\.t_buf\.in
*897 wrapper_cell_loop\[0\]\.w1\.fb_block_I\.gs_f\.fb_gray_selector_loop\[7\]\.eff3\.d1
*898 wrapper_cell_loop\[0\]\.w1\.fb_block_I\.gs_f\.fb_gray_selector_loop\[7\]\.eff3\.d2
*899 wrapper_cell_loop\[0\]\.w1\.fb_block_I\.gs_f\.fb_gray_selector_loop\[7\]\.eff3\.dff\.q
*900 wrapper_cell_loop\[0\]\.w1\.fb_block_I\.gs_f\.fb_gray_selector_loop\[7\]\.eff3\.dff_n\.q
*901 wrapper_cell_loop\[0\]\.w1\.fb_block_I\.gs_f\.fb_gray_selector_loop\[7\]\.t_buf\.ctrlb
*902 wrapper_cell_loop\[0\]\.w1\.fb_block_I\.gs_f\.fb_gray_selector_loop\[7\]\.t_buf\.in
*903 wrapper_cell_loop\[0\]\.w1\.fb_block_I\.gs_f\.fb_gray_selector_loop\[8\]\.eff3\.d1
*904 wrapper_cell_loop\[0\]\.w1\.fb_block_I\.gs_f\.fb_gray_selector_loop\[8\]\.eff3\.d2
*905 wrapper_cell_loop\[0\]\.w1\.fb_block_I\.gs_f\.fb_gray_selector_loop\[8\]\.eff3\.dff\.q
*906 wrapper_cell_loop\[0\]\.w1\.fb_block_I\.gs_f\.fb_gray_selector_loop\[8\]\.eff3\.dff_n\.q
*907 wrapper_cell_loop\[0\]\.w1\.fb_block_I\.gs_f\.fb_gray_selector_loop\[8\]\.t_buf\.ctrlb
*908 wrapper_cell_loop\[0\]\.w1\.fb_block_I\.gs_f\.fb_gray_selector_loop\[8\]\.t_buf\.in
*909 wrapper_cell_loop\[0\]\.w1\.fb_block_I\.gs_f\.fb_gray_selector_loop\[9\]\.eff3\.d1
*910 wrapper_cell_loop\[0\]\.w1\.fb_block_I\.gs_f\.fb_gray_selector_loop\[9\]\.eff3\.d2
*911 wrapper_cell_loop\[0\]\.w1\.fb_block_I\.gs_f\.fb_gray_selector_loop\[9\]\.eff3\.dff\.q
*912 wrapper_cell_loop\[0\]\.w1\.fb_block_I\.gs_f\.fb_gray_selector_loop\[9\]\.eff3\.dff_n\.q
*913 wrapper_cell_loop\[0\]\.w1\.fb_block_I\.gs_f\.fb_gray_selector_loop\[9\]\.t_buf\.ctrlb
*914 wrapper_cell_loop\[0\]\.w1\.fb_block_I\.gs_f\.fb_gray_selector_loop\[9\]\.t_buf\.in
*915 wrapper_cell_loop\[0\]\.w1\.fb_block_I\.ud_c\.bin_counter\[0\]\.cc\.q
*916 wrapper_cell_loop\[0\]\.w1\.fb_block_I\.ud_c\.bin_counter\[0\]\.cc\.tff1\.d
*917 wrapper_cell_loop\[0\]\.w1\.fb_block_I\.ud_c\.bin_counter\[10\]\.cc\.tff1\.d
*918 wrapper_cell_loop\[0\]\.w1\.fb_block_I\.ud_c\.bin_counter\[11\]\.cc\.tff1\.d
*919 wrapper_cell_loop\[0\]\.w1\.fb_block_I\.ud_c\.bin_counter\[12\]\.cc\.tff1\.d
*920 wrapper_cell_loop\[0\]\.w1\.fb_block_I\.ud_c\.bin_counter\[13\]\.cc\.tff1\.d
*921 wrapper_cell_loop\[0\]\.w1\.fb_block_I\.ud_c\.bin_counter\[1\]\.cc\.q
*922 wrapper_cell_loop\[0\]\.w1\.fb_block_I\.ud_c\.bin_counter\[1\]\.cc\.tff1\.d
*923 wrapper_cell_loop\[0\]\.w1\.fb_block_I\.ud_c\.bin_counter\[2\]\.cc\.q
*924 wrapper_cell_loop\[0\]\.w1\.fb_block_I\.ud_c\.bin_counter\[2\]\.cc\.tff1\.d
*925 wrapper_cell_loop\[0\]\.w1\.fb_block_I\.ud_c\.bin_counter\[3\]\.cc\.q
*926 wrapper_cell_loop\[0\]\.w1\.fb_block_I\.ud_c\.bin_counter\[3\]\.cc\.tff1\.d
*927 wrapper_cell_loop\[0\]\.w1\.fb_block_I\.ud_c\.bin_counter\[4\]\.cc\.q