*SPEF "ieee 1481-1999"
*DESIGN "first_dual_core"
*DATE "11:11:11 Fri 11 11, 1111"
*VENDOR "OpenRCX"
*PROGRAM "Parallel Extraction"
*VERSION "1.0"
*DESIGN_FLOW "NAME_SCOPE LOCAL" "PIN_CAP NONE"
*DIVIDER /
*DELIMITER :
*BUS_DELIMITER []
*T_UNIT 1 NS
*C_UNIT 1 PF
*R_UNIT 1 OHM
*L_UNIT 1 HENRY

*NAME_MAP
*1 cclk_I[0]
*2 cclk_I[1]
*3 cclk_Q[0]
*4 cclk_Q[1]
*5 clk_master
*6 clk_master_out
*7 clkdiv2_I[0]
*8 clkdiv2_I[1]
*9 clkdiv2_Q[0]
*10 clkdiv2_Q[1]
*11 comp_high_I[0]
*12 comp_high_I[1]
*13 comp_high_Q[0]
*14 comp_high_Q[1]
*15 cos_out[0]
*16 cos_out[1]
*17 cos_outb[0]
*18 cos_outb[1]
*19 div2out
*20 fb1_I[0]
*21 fb1_I[1]
*22 fb1_Q[0]
*23 fb1_Q[1]
*24 fb2_I[0]
*25 fb2_I[1]
*26 fb2_Q[0]
*27 fb2_Q[1]
*28 gray_clk_out[10]
*29 gray_clk_out[1]
*30 gray_clk_out[2]
*31 gray_clk_out[3]
*32 gray_clk_out[4]
*33 gray_clk_out[5]
*34 gray_clk_out[6]
*35 gray_clk_out[7]
*36 gray_clk_out[8]
*37 gray_clk_out[9]
*38 no_ones_below_out[0]
*39 no_ones_below_out[1]
*40 no_ones_below_out[2]
*41 phi1b_dig_I[0]
*42 phi1b_dig_I[1]
*43 phi1b_dig_Q[0]
*44 phi1b_dig_Q[1]
*45 read_out_I[0]
*46 read_out_I[1]
*47 read_out_I_top[0]
*48 read_out_I_top[1]
*49 read_out_Q[0]
*50 read_out_Q[1]
*51 read_out_Q_top[0]
*52 read_out_Q_top[1]
*53 rstb
*54 rstb_out
*55 sin_out[0]
*56 sin_out[1]
*57 sin_outb[0]
*58 sin_outb[1]
*59 ud_en
*60 ud_en_out
*63 _0000_
*64 _0001_
*65 _0017_
*66 _0020_
*67 _0023_
*68 _0026_
*69 _0027_
*70 _0028_
*71 _0029_
*72 _0030_
*73 _0031_
*74 _0032_
*75 _0033_
*76 _0034_
*77 _0035_
*78 _0036_
*79 _0037_
*80 _0038_
*81 _0039_
*82 _0040_
*83 _0041_
*84 _0042_
*85 _0043_
*86 _0044_
*87 _0045_
*88 _0046_
*89 _0047_
*90 _0048_
*91 _0049_
*92 _0050_
*93 _0051_
*94 _0052_
*95 _0053_
*96 _0054_
*97 _0055_
*98 _0056_
*99 _0057_
*100 _0058_
*101 _0059_
*102 _0060_
*103 _0061_
*104 _0062_
*105 _0063_
*106 _0064_
*107 _0065_
*108 _0066_
*109 _0067_
*110 _0068_
*111 _0069_
*112 _0070_
*113 _0071_
*114 _0072_
*115 _0073_
*116 _0074_
*117 _0075_
*118 _0076_
*119 _0077_
*120 _0078_
*121 _0079_
*122 _0080_
*123 _0081_
*124 _0082_
*125 _0083_
*126 _0084_
*127 _0085_
*128 _0086_
*129 _0087_
*130 _0090_
*131 _0091_
*132 _0092_
*133 _0093_
*134 _0096_
*135 _0099_
*136 _0102_
*137 _0104_
*138 _0107_
*139 _0110_
*140 _0113_
*141 _0117_
*142 _0120_
*143 _0123_
*144 _0126_
*145 _0129_
*146 _0132_
*147 _0134_
*148 _0137_
*149 _0140_
*150 _0143_
*151 _0147_
*152 _0150_
*153 _0153_
*154 _0155_
*155 _0156_
*156 _0157_
*157 _0158_
*158 _0159_
*159 _0160_
*160 _0161_
*161 _0162_
*162 _0163_
*163 _0164_
*164 _0165_
*165 _0166_
*166 _0167_
*167 _0168_
*168 _0169_
*169 _0170_
*170 _0171_
*171 _0172_
*172 _0173_
*173 _0174_
*174 _0175_
*175 _0176_
*176 _0177_
*177 _0178_
*178 _0179_
*179 _0180_
*180 _0181_
*181 _0182_
*182 _0183_
*183 _0184_
*184 _0185_
*185 _0186_
*186 _0187_
*187 _0188_
*188 _0189_
*189 _0190_
*190 _0191_
*191 _0192_
*192 _0193_
*193 _0194_
*194 _0195_
*195 _0196_
*196 _0197_
*197 _0198_
*198 _0199_
*199 _0200_
*200 _0201_
*201 _0202_
*202 _0203_
*203 _0204_
*204 _0205_
*205 _0206_
*206 _0207_
*207 _0208_
*208 _0209_
*209 _0210_
*210 _0211_
*211 _0212_
*212 _0213_
*213 _0214_
*214 _0215_
*215 _0216_
*216 _0217_
*217 _0218_
*218 _0219_
*219 _0220_
*220 _0221_
*221 _0222_
*222 _0223_
*223 _0224_
*224 _0225_
*225 _0226_
*226 _0227_
*227 _0228_
*228 _0229_
*229 _0230_
*230 _0231_
*231 _0232_
*232 _0233_
*233 _0234_
*234 _0235_
*235 _0236_
*236 _0237_
*237 _0238_
*238 _0239_
*239 _0240_
*240 _0241_
*241 _0242_
*242 _0243_
*243 _0244_
*244 _0245_
*245 _0246_
*246 _0247_
*247 _0248_
*248 _0249_
*249 _0250_
*250 _0251_
*251 _0252_
*252 _0253_
*253 _0254_
*254 _0255_
*255 _0256_
*256 _0257_
*257 _0258_
*258 _0259_
*259 _0260_
*260 _0261_
*261 _0262_
*262 _0263_
*263 _0264_
*264 _0265_
*265 _0266_
*266 _0267_
*267 _0268_
*268 _0269_
*269 _0270_
*270 _0271_
*271 _0272_
*272 _0273_
*273 _0274_
*274 _0275_
*275 _0276_
*276 _0277_
*277 _0278_
*278 _0279_
*279 _0280_
*280 _0281_
*281 _0282_
*282 _0283_
*283 _0284_
*284 _0285_
*285 _0286_
*286 _0287_
*287 _0288_
*288 _0289_
*289 _0290_
*290 _0291_
*291 _0292_
*292 _0293_
*293 _0294_
*294 _0295_
*295 _0296_
*296 _0297_
*297 _0298_
*298 _0299_
*299 _0300_
*300 _0301_
*301 _0302_
*302 _0303_
*303 _0304_
*304 _0305_
*305 _0306_
*306 _0307_
*307 _0308_
*308 _0309_
*309 _0310_
*310 _0311_
*311 _0312_
*312 _0313_
*313 _0314_
*314 _0315_
*315 _0316_
*316 _0317_
*317 _0318_
*318 _0319_
*319 _0320_
*320 _0321_
*321 _0322_
*322 _0323_
*323 _0324_
*324 _0325_
*325 _0326_
*326 _0327_
*327 _0328_
*328 _0329_
*329 _0330_
*330 _0331_
*331 _0332_
*332 _0333_
*333 _0334_
*334 _0335_
*335 _0336_
*336 _0337_
*337 _0338_
*338 _0339_
*339 _0340_
*340 _0341_
*341 _0342_
*342 _0343_
*343 _0344_
*344 _0345_
*345 _0346_
*346 _0347_
*347 _0348_
*348 _0349_
*349 _0350_
*350 _0351_
*351 _0352_
*352 _0353_
*353 _0354_
*354 _0355_
*355 _0356_
*356 _0357_
*357 _0358_
*358 _0359_
*359 _0360_
*360 _0361_
*361 _0362_
*362 _0363_
*363 _0364_
*364 _0365_
*365 _0366_
*366 _0367_
*367 _0368_
*368 _0369_
*369 _0370_
*370 _0371_
*371 _0372_
*372 _0373_
*373 _0374_
*374 _0375_
*375 _0376_
*376 _0377_
*377 _0378_
*378 _0379_
*379 _0380_
*380 _0381_
*381 _0382_
*382 _0383_
*383 _0384_
*384 _0385_
*385 _0386_
*386 _0387_
*387 _0388_
*388 _0389_
*389 _0390_
*390 _0391_
*391 _0392_
*392 _0393_
*393 _0394_
*394 _0395_
*395 _0396_
*396 _0397_
*397 _0398_
*398 _0399_
*399 _0400_
*400 _0401_
*401 _0402_
*402 _0403_
*403 _0404_
*404 _0405_
*405 _0406_
*406 _0407_
*407 _0408_
*408 _0409_
*409 _0410_
*410 _0411_
*411 _0412_
*412 _0413_
*413 _0414_
*414 _0415_
*415 _0416_
*416 _0417_
*417 _0418_
*418 _0419_
*419 _0420_
*420 _0421_
*421 _0422_
*422 _0423_
*423 _0424_
*424 _0425_
*425 _0426_
*426 _0427_
*427 _0428_
*428 _0429_
*429 _0430_
*430 _0431_
*431 _0432_
*432 _0433_
*433 _0434_
*434 _0435_
*435 _0436_
*436 _0437_
*437 _0438_
*438 _0439_
*439 _0440_
*440 _0441_
*441 _0442_
*442 _0443_
*443 _0444_
*444 _0445_
*445 _0446_
*446 _0447_
*447 _0448_
*448 _0449_
*449 _0450_
*450 _0451_
*451 _0452_
*452 _0453_
*453 _0454_
*454 _0455_
*455 _0456_
*456 _0457_
*457 _0458_
*458 _0459_
*459 _0460_
*460 _0461_
*461 _0462_
*462 _0463_
*463 _0464_
*464 _0465_
*465 _0466_
*466 _0467_
*467 _0468_
*468 _0469_
*469 _0470_
*470 _0471_
*471 _0472_
*472 _0473_
*473 clknet_0__0322_
*474 clknet_0__0323_
*475 clknet_0__0324_
*476 clknet_0__0325_
*477 clknet_0__0331_
*478 clknet_0__0332_
*479 clknet_0__0333_
*480 clknet_0__0334_
*481 clknet_0__0335_
*482 clknet_0__0336_
*483 clknet_0__0337_
*484 clknet_0__0338_
*485 clknet_0__0339_
*486 clknet_0__0340_
*487 clknet_0__0347_
*488 clknet_0_clk_master
*489 clknet_0_w0\.cclk_I
*490 clknet_1_0_0__0322_
*491 clknet_1_0_0__0323_
*492 clknet_1_0_0__0324_
*493 clknet_1_0_0__0325_
*494 clknet_1_0_0__0331_
*495 clknet_1_0_0__0332_
*496 clknet_1_0_0__0335_
*497 clknet_1_0_0__0336_
*498 clknet_1_0_0__0337_
*499 clknet_1_0_0__0338_
*500 clknet_1_0_0__0339_
*501 clknet_1_0_0__0340_
*502 clknet_1_0_0__0347_
*503 clknet_1_0_0_clk_master
*504 clknet_1_0_0_w0\.cclk_I
*505 clknet_1_0__leaf__0333_
*506 clknet_1_0__leaf__0334_
*507 clknet_1_1_0__0322_
*508 clknet_1_1_0__0323_
*509 clknet_1_1_0__0324_
*510 clknet_1_1_0__0325_
*511 clknet_1_1_0__0331_
*512 clknet_1_1_0__0332_
*513 clknet_1_1_0__0335_
*514 clknet_1_1_0__0336_
*515 clknet_1_1_0__0337_
*516 clknet_1_1_0__0338_
*517 clknet_1_1_0__0339_
*518 clknet_1_1_0__0340_
*519 clknet_1_1_0__0347_
*520 clknet_1_1_0_clk_master
*521 clknet_1_1_0_w0\.cclk_I
*522 clknet_1_1__leaf__0333_
*523 clknet_1_1__leaf__0334_
*524 clknet_2_0_0_clk_master
*525 clknet_2_0_0_w0\.cclk_I
*526 clknet_2_1_0_clk_master
*527 clknet_2_1_0_w0\.cclk_I
*528 clknet_2_2_0_clk_master
*529 clknet_2_2_0_w0\.cclk_I
*530 clknet_2_3_0_clk_master
*531 clknet_2_3_0_w0\.cclk_I
*532 net1
*533 net10
*534 net100
*535 net101
*536 net102
*537 net103
*538 net104
*539 net105
*540 net106
*541 net107
*542 net108
*543 net109
*544 net11
*545 net110
*546 net111
*547 net112
*548 net113
*549 net114
*550 net115
*551 net116
*552 net117
*553 net118
*554 net119
*555 net12
*556 net120
*557 net121
*558 net122
*559 net123
*560 net124
*561 net13
*562 net14
*563 net15
*564 net16
*565 net17
*566 net18
*567 net19
*568 net2
*569 net20
*570 net21
*571 net22
*572 net23
*573 net24
*574 net25
*575 net26
*576 net27
*577 net28
*578 net29
*579 net3
*580 net30
*581 net31
*582 net32
*583 net33
*584 net34
*585 net35
*586 net36
*587 net37
*588 net38
*589 net39
*590 net4
*591 net40
*592 net41
*593 net42
*594 net43
*595 net44
*596 net45
*597 net46
*598 net47
*599 net48
*600 net49
*601 net5
*602 net50
*603 net51
*604 net52
*605 net53
*606 net54
*607 net55
*608 net56
*609 net57
*610 net58
*611 net59
*612 net6
*613 net60
*614 net61
*615 net62
*616 net63
*617 net64
*618 net65
*619 net66
*620 net67
*621 net68
*622 net69
*623 net7
*624 net70
*625 net71
*626 net72
*627 net73
*628 net74
*629 net75
*630 net76
*631 net77
*632 net78
*633 net79
*634 net8
*635 net80
*636 net81
*637 net82
*638 net83
*639 net84
*640 net85
*641 net86
*642 net87
*643 net88
*644 net89
*645 net9
*646 net90
*647 net91
*648 net92
*649 net93
*650 net94
*651 net95
*652 net96
*653 net97
*654 net98
*655 net99
*656 w0\.POL_EVE_I\.comp_out
*657 w0\.POL_EVE_I\.dff1\.q
*658 w0\.POL_EVE_I\.dff2\.q
*659 w0\.POL_EVE_I\.dff3\.q
*660 w0\.POL_EVE_I\.eve
*661 w0\.POL_EVE_I\.polxevent
*662 w0\.POL_EVE_Q\.comp_out
*663 w0\.POL_EVE_Q\.dff1\.q
*664 w0\.POL_EVE_Q\.dff2\.q
*665 w0\.POL_EVE_Q\.dff3\.q
*666 w0\.POL_EVE_Q\.eve
*667 w0\.POL_EVE_Q\.polxevent
*668 w0\.bank1\.cos_out
*669 w0\.bank1\.sin_out
*670 w0\.cclk_I
*671 w0\.div2\.dff\.d
*672 w0\.div2\.dff\.q
*673 w0\.fb1_I
*674 w0\.fb1_Q
*675 w0\.fb_block_I\.gs_f\.fb_gray_selector_loop\[0\]\.dl\.d
*676 w0\.fb_block_I\.gs_f\.fb_gray_selector_loop\[0\]\.eff3\.d1
*677 w0\.fb_block_I\.gs_f\.fb_gray_selector_loop\[0\]\.eff3\.d2
*678 w0\.fb_block_I\.gs_f\.fb_gray_selector_loop\[0\]\.eff3\.dff\.q
*679 w0\.fb_block_I\.gs_f\.fb_gray_selector_loop\[0\]\.eff3\.dff_n\.q
*680 w0\.fb_block_I\.gs_f\.fb_gray_selector_loop\[0\]\.t_buf\.ctrlb
*681 w0\.fb_block_I\.gs_f\.fb_gray_selector_loop\[0\]\.t_buf\.in
*682 w0\.fb_block_I\.gs_f\.fb_gray_selector_loop\[1\]\.eff3\.clk
*683 w0\.fb_block_I\.gs_f\.fb_gray_selector_loop\[1\]\.eff3\.d1
*684 w0\.fb_block_I\.gs_f\.fb_gray_selector_loop\[1\]\.eff3\.d2
*685 w0\.fb_block_I\.gs_f\.fb_gray_selector_loop\[1\]\.eff3\.dff\.q
*686 w0\.fb_block_I\.gs_f\.fb_gray_selector_loop\[1\]\.eff3\.dff_n\.q
*687 w0\.fb_block_I\.gs_f\.fb_gray_selector_loop\[1\]\.t_buf\.ctrlb
*688 w0\.fb_block_I\.gs_f\.fb_gray_selector_loop\[1\]\.t_buf\.in
*689 w0\.fb_block_I\.gs_f\.fb_gray_selector_loop\[2\]\.eff3\.clk
*690 w0\.fb_block_I\.gs_f\.fb_gray_selector_loop\[2\]\.eff3\.d1
*691 w0\.fb_block_I\.gs_f\.fb_gray_selector_loop\[2\]\.eff3\.d2
*692 w0\.fb_block_I\.gs_f\.fb_gray_selector_loop\[2\]\.eff3\.dff\.q
*693 w0\.fb_block_I\.gs_f\.fb_gray_selector_loop\[2\]\.eff3\.dff_n\.q
*694 w0\.fb_block_I\.gs_f\.fb_gray_selector_loop\[2\]\.t_buf\.ctrlb
*695 w0\.fb_block_I\.gs_f\.fb_gray_selector_loop\[2\]\.t_buf\.in
*696 w0\.fb_block_I\.gs_f\.fb_gray_selector_loop\[3\]\.eff3\.clk
*697 w0\.fb_block_I\.gs_f\.fb_gray_selector_loop\[3\]\.eff3\.d1
*698 w0\.fb_block_I\.gs_f\.fb_gray_selector_loop\[3\]\.eff3\.d2
*699 w0\.fb_block_I\.gs_f\.fb_gray_selector_loop\[3\]\.eff3\.dff\.q
*700 w0\.fb_block_I\.gs_f\.fb_gray_selector_loop\[3\]\.eff3\.dff_n\.q
*701 w0\.fb_block_I\.gs_f\.fb_gray_selector_loop\[3\]\.t_buf\.ctrlb
*702 w0\.fb_block_I\.gs_f\.fb_gray_selector_loop\[3\]\.t_buf\.in
*703 w0\.fb_block_I\.gs_f\.fb_gray_selector_loop\[4\]\.eff3\.clk
*704 w0\.fb_block_I\.gs_f\.fb_gray_selector_loop\[4\]\.eff3\.d1
*705 w0\.fb_block_I\.gs_f\.fb_gray_selector_loop\[4\]\.eff3\.d2
*706 w0\.fb_block_I\.gs_f\.fb_gray_selector_loop\[4\]\.eff3\.dff\.q
*707 w0\.fb_block_I\.gs_f\.fb_gray_selector_loop\[4\]\.eff3\.dff_n\.q
*708 w0\.fb_block_I\.gs_f\.fb_gray_selector_loop\[4\]\.t_buf\.ctrlb
*709 w0\.fb_block_I\.gs_f\.fb_gray_selector_loop\[4\]\.t_buf\.in
*710 w0\.fb_block_I\.gs_f\.fb_gray_selector_loop\[5\]\.eff3\.clk
*711 w0\.fb_block_I\.gs_f\.fb_gray_selector_loop\[5\]\.eff3\.d1
*712 w0\.fb_block_I\.gs_f\.fb_gray_selector_loop\[5\]\.eff3\.d2
*713 w0\.fb_block_I\.gs_f\.fb_gray_selector_loop\[5\]\.eff3\.dff\.q
*714 w0\.fb_block_I\.gs_f\.fb_gray_selector_loop\[5\]\.eff3\.dff_n\.q
*715 w0\.fb_block_I\.gs_f\.fb_gray_selector_loop\[5\]\.t_buf\.ctrlb
*716 w0\.fb_block_I\.gs_f\.fb_gray_selector_loop\[5\]\.t_buf\.in
*717 w0\.fb_block_I\.gs_f\.fb_gray_selector_loop\[6\]\.eff3\.clk
*718 w0\.fb_block_I\.gs_f\.fb_gray_selector_loop\[6\]\.eff3\.d1
*719 w0\.fb_block_I\.gs_f\.fb_gray_selector_loop\[6\]\.eff3\.d2
*720 w0\.fb_block_I\.gs_f\.fb_gray_selector_loop\[6\]\.eff3\.dff\.q
*721 w0\.fb_block_I\.gs_f\.fb_gray_selector_loop\[6\]\.eff3\.dff_n\.q
*722 w0\.fb_block_I\.gs_f\.fb_gray_selector_loop\[6\]\.t_buf\.ctrlb
*723 w0\.fb_block_I\.gs_f\.fb_gray_selector_loop\[6\]\.t_buf\.in
*724 w0\.fb_block_I\.gs_f\.fb_gray_selector_loop\[7\]\.eff3\.clk
*725 w0\.fb_block_I\.gs_f\.fb_gray_selector_loop\[7\]\.eff3\.d1
*726 w0\.fb_block_I\.gs_f\.fb_gray_selector_loop\[7\]\.eff3\.d2
*727 w0\.fb_block_I\.gs_f\.fb_gray_selector_loop\[7\]\.eff3\.dff\.q
*728 w0\.fb_block_I\.gs_f\.fb_gray_selector_loop\[7\]\.eff3\.dff_n\.q
*729 w0\.fb_block_I\.gs_f\.fb_gray_selector_loop\[7\]\.t_buf\.ctrlb
*730 w0\.fb_block_I\.gs_f\.fb_gray_selector_loop\[7\]\.t_buf\.in
*731 w0\.fb_block_I\.gs_f\.fb_gray_selector_loop\[8\]\.eff3\.clk
*732 w0\.fb_block_I\.gs_f\.fb_gray_selector_loop\[8\]\.eff3\.d1
*733 w0\.fb_block_I\.gs_f\.fb_gray_selector_loop\[8\]\.eff3\.d2
*734 w0\.fb_block_I\.gs_f\.fb_gray_selector_loop\[8\]\.eff3\.dff\.q
*735 w0\.fb_block_I\.gs_f\.fb_gray_selector_loop\[8\]\.eff3\.dff_n\.q
*736 w0\.fb_block_I\.gs_f\.fb_gray_selector_loop\[8\]\.t_buf\.ctrlb
*737 w0\.fb_block_I\.gs_f\.fb_gray_selector_loop\[8\]\.t_buf\.in
*738 w0\.fb_block_I\.gs_f\.fb_gray_selector_loop\[9\]\.eff3\.clk
*739 w0\.fb_block_I\.gs_f\.fb_gray_selector_loop\[9\]\.eff3\.d1
*740 w0\.fb_block_I\.gs_f\.fb_gray_selector_loop\[9\]\.eff3\.d2
*741 w0\.fb_block_I\.gs_f\.fb_gray_selector_loop\[9\]\.eff3\.dff\.q
*742 w0\.fb_block_I\.gs_f\.fb_gray_selector_loop\[9\]\.eff3\.dff_n\.q
*743 w0\.fb_block_I\.gs_f\.fb_gray_selector_loop\[9\]\.t_buf\.ctrlb
*744 w0\.fb_block_I\.gs_f\.fb_gray_selector_loop\[9\]\.t_buf\.in
*745 w0\.fb_block_I\.ud_c\.bin_counter\[0\]\.cc\.q
*746 w0\.fb_block_I\.ud_c\.bin_counter\[0\]\.cc\.tff1\.d
*747 w0\.fb_block_I\.ud_c\.bin_counter\[10\]\.cc\.tff1\.d
*748 w0\.fb_block_I\.ud_c\.bin_counter\[11\]\.cc\.tff1\.d
*749 w0\.fb_block_I\.ud_c\.bin_counter\[12\]\.cc\.tff1\.d
*750 w0\.fb_block_I\.ud_c\.bin_counter\[13\]\.cc\.tff1\.d
*751 w0\.fb_block_I\.ud_c\.bin_counter\[1\]\.cc\.q
*752 w0\.fb_block_I\.ud_c\.bin_counter\[1\]\.cc\.tff1\.d
*753 w0\.fb_block_I\.ud_c\.bin_counter\[2\]\.cc\.q
*754 w0\.fb_block_I\.ud_c\.bin_counter\[2\]\.cc\.tff1\.d
*755 w0\.fb_block_I\.ud_c\.bin_counter\[3\]\.cc\.q
*756 w0\.fb_block_I\.ud_c\.bin_counter\[3\]\.cc\.tff1\.d
*757 w0\.fb_block_I\.ud_c\.bin_counter\[4\]\.cc\.q
*758 w0\.fb_block_I\.ud_c\.bin_counter\[4\]\.cc\.tff1\.d
*759 w0\.fb_block_I\.ud_c\.bin_counter\[5\]\.cc\.tff1\.d
*760 w0\.fb_block_I\.ud_c\.bin_counter\[6\]\.cc\.tff1\.d
*761 w0\.fb_block_I\.ud_c\.bin_counter\[7\]\.cc\.tff1\.d
*762 w0\.fb_block_I\.ud_c\.bin_counter\[8\]\.cc\.tff1\.d
*763 w0\.fb_block_I\.ud_c\.bin_counter\[9\]\.cc\.tff1\.d
*764 w0\.fb_block_I\.ud_c\.cc1\.q
*765 w0\.fb_block_I\.ud_c\.cc1\.tff1\.d
*766 w0\.fb_block_I\.ud_c\.tff_end\.d
*767 w0\.fb_block_Q\.gs_f\.fb_gray_selector_loop\[0\]\.dl\.d
*768 w0\.fb_block_Q\.gs_f\.fb_gray_selector_loop\[0\]\.eff3\.d1
*769 w0\.fb_block_Q\.gs_f\.fb_gray_selector_loop\[0\]\.eff3\.d2
*770 w0\.fb_block_Q\.gs_f\.fb_gray_selector_loop\[0\]\.eff3\.dff\.q
*771 w0\.fb_block_Q\.gs_f\.fb_gray_selector_loop\[0\]\.eff3\.dff_n\.q
*772 w0\.fb_block_Q\.gs_f\.fb_gray_selector_loop\[0\]\.t_buf\.ctrlb
*773 w0\.fb_block_Q\.gs_f\.fb_gray_selector_loop\[0\]\.t_buf\.in
*774 w0\.fb_block_Q\.gs_f\.fb_gray_selector_loop\[1\]\.eff3\.d1
*775 w0\.fb_block_Q\.gs_f\.fb_gray_selector_loop\[1\]\.eff3\.d2
*776 w0\.fb_block_Q\.gs_f\.fb_gray_selector_loop\[1\]\.eff3\.dff\.q
*777 w0\.fb_block_Q\.gs_f\.fb_gray_selector_loop\[1\]\.eff3\.dff_n\.q
*778 w0\.fb_block_Q\.gs_f\.fb_gray_selector_loop\[1\]\.t_buf\.ctrlb
*779 w0\.fb_block_Q\.gs_f\.fb_gray_selector_loop\[1\]\.t_buf\.in
*780 w0\.fb_block_Q\.gs_f\.fb_gray_selector_loop\[2\]\.eff3\.d1
*781 w0\.fb_block_Q\.gs_f\.fb_gray_selector_loop\[2\]\.eff3\.d2
*782 w0\.fb_block_Q\.gs_f\.fb_gray_selector_loop\[2\]\.eff3\.dff\.q
*783 w0\.fb_block_Q\.gs_f\.fb_gray_selector_loop\[2\]\.eff3\.dff_n\.q
*784 w0\.fb_block_Q\.gs_f\.fb_gray_selector_loop\[2\]\.t_buf\.ctrlb
*785 w0\.fb_block_Q\.gs_f\.fb_gray_selector_loop\[2\]\.t_buf\.in
*786 w0\.fb_block_Q\.gs_f\.fb_gray_selector_loop\[3\]\.eff3\.d1
*787 w0\.fb_block_Q\.gs_f\.fb_gray_selector_loop\[3\]\.eff3\.d2
*788 w0\.fb_block_Q\.gs_f\.fb_gray_selector_loop\[3\]\.eff3\.dff\.q
*789 w0\.fb_block_Q\.gs_f\.fb_gray_selector_loop\[3\]\.eff3\.dff_n\.q
*790 w0\.fb_block_Q\.gs_f\.fb_gray_selector_loop\[3\]\.t_buf\.ctrlb
*791 w0\.fb_block_Q\.gs_f\.fb_gray_selector_loop\[3\]\.t_buf\.in
*792 w0\.fb_block_Q\.gs_f\.fb_gray_selector_loop\[4\]\.eff3\.d1
*793 w0\.fb_block_Q\.gs_f\.fb_gray_selector_loop\[4\]\.eff3\.d2
*794 w0\.fb_block_Q\.gs_f\.fb_gray_selector_loop\[4\]\.eff3\.dff\.q
*795 w0\.fb_block_Q\.gs_f\.fb_gray_selector_loop\[4\]\.eff3\.dff_n\.q
*796 w0\.fb_block_Q\.gs_f\.fb_gray_selector_loop\[4\]\.t_buf\.ctrlb
*797 w0\.fb_block_Q\.gs_f\.fb_gray_selector_loop\[4\]\.t_buf\.in
*798 w0\.fb_block_Q\.gs_f\.fb_gray_selector_loop\[5\]\.eff3\.d1
*799 w0\.fb_block_Q\.gs_f\.fb_gray_selector_loop\[5\]\.eff3\.d2
*800 w0\.fb_block_Q\.gs_f\.fb_gray_selector_loop\[5\]\.eff3\.dff\.q
*801 w0\.fb_block_Q\.gs_f\.fb_gray_selector_loop\[5\]\.eff3\.dff_n\.q
*802 w0\.fb_block_Q\.gs_f\.fb_gray_selector_loop\[5\]\.t_buf\.ctrlb
*803 w0\.fb_block_Q\.gs_f\.fb_gray_selector_loop\[5\]\.t_buf\.in
*804 w0\.fb_block_Q\.gs_f\.fb_gray_selector_loop\[6\]\.eff3\.d1
*805 w0\.fb_block_Q\.gs_f\.fb_gray_selector_loop\[6\]\.eff3\.d2
*806 w0\.fb_block_Q\.gs_f\.fb_gray_selector_loop\[6\]\.eff3\.dff\.q
*807 w0\.fb_block_Q\.gs_f\.fb_gray_selector_loop\[6\]\.eff3\.dff_n\.q
*808 w0\.fb_block_Q\.gs_f\.fb_gray_selector_loop\[6\]\.t_buf\.ctrlb
*809 w0\.fb_block_Q\.gs_f\.fb_gray_selector_loop\[6\]\.t_buf\.in
*810 w0\.fb_block_Q\.gs_f\.fb_gray_selector_loop\[7\]\.eff3\.d1
*811 w0\.fb_block_Q\.gs_f\.fb_gray_selector_loop\[7\]\.eff3\.d2
*812 w0\.fb_block_Q\.gs_f\.fb_gray_selector_loop\[7\]\.eff3\.dff\.q
*813 w0\.fb_block_Q\.gs_f\.fb_gray_selector_loop\[7\]\.eff3\.dff_n\.q
*814 w0\.fb_block_Q\.gs_f\.fb_gray_selector_loop\[7\]\.t_buf\.ctrlb
*815 w0\.fb_block_Q\.gs_f\.fb_gray_selector_loop\[7\]\.t_buf\.in
*816 w0\.fb_block_Q\.gs_f\.fb_gray_selector_loop\[8\]\.eff3\.d1
*817 w0\.fb_block_Q\.gs_f\.fb_gray_selector_loop\[8\]\.eff3\.d2
*818 w0\.fb_block_Q\.gs_f\.fb_gray_selector_loop\[8\]\.eff3\.dff\.q
*819 w0\.fb_block_Q\.gs_f\.fb_gray_selector_loop\[8\]\.eff3\.dff_n\.q
*820 w0\.fb_block_Q\.gs_f\.fb_gray_selector_loop\[8\]\.t_buf\.ctrlb
*821 w0\.fb_block_Q\.gs_f\.fb_gray_selector_loop\[8\]\.t_buf\.in
*822 w0\.fb_block_Q\.gs_f\.fb_gray_selector_loop\[9\]\.eff3\.d1
*823 w0\.fb_block_Q\.gs_f\.fb_gray_selector_loop\[9\]\.eff3\.d2
*824 w0\.fb_block_Q\.gs_f\.fb_gray_selector_loop\[9\]\.eff3\.dff\.q
*825 w0\.fb_block_Q\.gs_f\.fb_gray_selector_loop\[9\]\.eff3\.dff_n\.q
*826 w0\.fb_block_Q\.gs_f\.fb_gray_selector_loop\[9\]\.t_buf\.ctrlb
*827 w0\.fb_block_Q\.gs_f\.fb_gray_selector_loop\[9\]\.t_buf\.in
*828 w0\.fb_block_Q\.ud_c\.bin_counter\[0\]\.cc\.q
*829 w0\.fb_block_Q\.ud_c\.bin_counter\[0\]\.cc\.tff1\.d
*830 w0\.fb_block_Q\.ud_c\.bin_counter\[10\]\.cc\.tff1\.d
*831 w0\.fb_block_Q\.ud_c\.bin_counter\[11\]\.cc\.tff1\.d
*832 w0\.fb_block_Q\.ud_c\.bin_counter\[12\]\.cc\.tff1\.d
*833 w0\.fb_block_Q\.ud_c\.bin_counter\[13\]\.cc\.tff1\.d
*834 w0\.fb_block_Q\.ud_c\.bin_counter\[1\]\.cc\.q
*835 w0\.fb_block_Q\.ud_c\.bin_counter\[1\]\.cc\.tff1\.d
*836 w0\.fb_block_Q\.ud_c\.bin_counter\[2\]\.cc\.q
*837 w0\.fb_block_Q\.ud_c\.bin_counter\[2\]\.cc\.tff1\.d
*838 w0\.fb_block_Q\.ud_c\.bin_counter\[3\]\.cc\.q
*839 w0\.fb_block_Q\.ud_c\.bin_counter\[3\]\.cc\.tff1\.d
*840 w0\.fb_block_Q\.ud_c\.bin_counter\[4\]\.cc\.q
*841 w0\.fb_block_Q\.ud_c\.bin_counter\[4\]\.cc\.tff1\.d
*842 w0\.fb_block_Q\.ud_c\.bin_counter\[5\]\.cc\.tff1\.d
*843 w0\.fb_block_Q\.ud_c\.bin_counter\[6\]\.cc\.tff1\.d
*844 w0\.fb_block_Q\.ud_c\.bin_counter\[7\]\.cc\.tff1\.d
*845 w0\.fb_block_Q\.ud_c\.bin_counter\[8\]\.cc\.tff1\.d
*846 w0\.fb_block_Q\.ud_c\.bin_counter\[9\]\.cc\.tff1\.d
*847 w0\.fb_block_Q\.ud_c\.cc1\.q
*848 w0\.fb_block_Q\.ud_c\.cc1\.tff1\.d
*849 w0\.fb_block_Q\.ud_c\.tff_end\.d
*850 w0\.gray_gen\.cell2\.eff_gray\.d1
*851 w0\.gray_gen\.cell2\.eff_gray\.d2
*852 w0\.gray_gen\.cell2\.eff_gray\.dff\.q
*853 w0\.gray_gen\.cell2\.eff_gray\.dff_n\.q
*854 w0\.gray_gen\.first_gray\.eff\.d1
*855 w0\.gray_gen\.first_gray\.eff\.d2
*856 w0\.gray_gen\.first_gray\.eff\.dff\.q
*857 w0\.gray_gen\.first_gray\.eff\.dff_n\.q
*858 w0\.gray_gen\.first_gray\.t_ff\.eff_gray\.d1
*859 w0\.gray_gen\.first_gray\.t_ff\.eff_gray\.d2
*860 w0\.gray_gen\.first_gray\.t_ff\.eff_gray\.dff\.q
*861 w0\.gray_gen\.first_gray\.t_ff\.eff_gray\.dff_n\.q
*862 w0\.gray_gen\.gray_loop\[1\]\.gray\.eff_gray\.d1
*863 w0\.gray_gen\.gray_loop\[1\]\.gray\.eff_gray\.d2
*864 w0\.gray_gen\.gray_loop\[1\]\.gray\.eff_gray\.dff\.q
*865 w0\.gray_gen\.gray_loop\[1\]\.gray\.eff_gray\.dff_n\.q
*866 w0\.gray_gen\.gray_loop\[2\]\.gray\.eff_gray\.d1
*867 w0\.gray_gen\.gray_loop\[2\]\.gray\.eff_gray\.d2
*868 w0\.gray_gen\.gray_loop\[2\]\.gray\.eff_gray\.dff\.q
*869 w0\.gray_gen\.gray_loop\[2\]\.gray\.eff_gray\.dff_n\.q
*870 w0\.gray_gen\.gray_loop\[3\]\.gray\.eff_gray\.d1
*871 w0\.gray_gen\.gray_loop\[3\]\.gray\.eff_gray\.d2
*872 w0\.gray_gen\.gray_loop\[3\]\.gray\.eff_gray\.dff\.q
*873 w0\.gray_gen\.gray_loop\[3\]\.gray\.eff_gray\.dff_n\.q
*874 w0\.gray_gen\.gray_loop\[4\]\.gray\.eff_gray\.d1
*875 w0\.gray_gen\.gray_loop\[4\]\.gray\.eff_gray\.d2
*876 w0\.gray_gen\.gray_loop\[4\]\.gray\.eff_gray\.dff\.q
*877 w0\.gray_gen\.gray_loop\[4\]\.gray\.eff_gray\.dff_n\.q
*878 w0\.gray_gen\.gray_loop\[5\]\.gray\.eff_gray\.d1
*879 w0\.gray_gen\.gray_loop\[5\]\.gray\.eff_gray\.d2
*880 w0\.gray_gen\.gray_loop\[5\]\.gray\.eff_gray\.dff\.q
*881 w0\.gray_gen\.gray_loop\[5\]\.gray\.eff_gray\.dff_n\.q
*882 w0\.gray_gen\.gray_loop\[5\]\.gray\.inv_out
*883 w0\.gray_gen\.gray_loop\[6\]\.gray\.eff_gray\.d1
*884 w0\.gray_gen\.gray_loop\[6\]\.gray\.eff_gray\.d2
*885 w0\.gray_gen\.gray_loop\[6\]\.gray\.eff_gray\.dff\.q
*886 w0\.gray_gen\.gray_loop\[6\]\.gray\.eff_gray\.dff_n\.q
*887 w0\.gray_gen\.gray_loop\[6\]\.gray\.inv_out
*888 w0\.gray_gen\.gray_loop\[7\]\.gray\.eff_gray\.d1
*889 w0\.gray_gen\.gray_loop\[7\]\.gray\.eff_gray\.d2
*890 w0\.gray_gen\.gray_loop\[7\]\.gray\.eff_gray\.dff\.q
*891 w0\.gray_gen\.gray_loop\[7\]\.gray\.eff_gray\.dff_n\.q
*892 w0\.gray_gen\.gray_loop\[7\]\.gray\.inv_out
*893 w0\.gray_gen\.gray_loop\[8\]\.gray\.eff_gray\.d1
*894 w0\.gray_gen\.gray_loop\[8\]\.gray\.eff_gray\.d2
*895 w0\.gray_gen\.gray_loop\[8\]\.gray\.eff_gray\.dff\.q
*896 w0\.gray_gen\.gray_loop\[8\]\.gray\.eff_gray\.dff_n\.q
*897 w0\.gray_gen\.gray_loop\[8\]\.gray\.inv_out
*898 w0\.gray_gen\.gray_loop\[8\]\.gray\.no_ones_below_jm1
*899 w0\.gray_gen\.gray_loop\[9\]\.gray\.eff_gray\.d1
*900 w0\.gray_gen\.gray_loop\[9\]\.gray\.eff_gray\.d2
*901 w0\.gray_gen\.gray_loop\[9\]\.gray\.eff_gray\.dff\.q
*902 w0\.gray_gen\.gray_loop\[9\]\.gray\.eff_gray\.dff_n\.q
*903 w0\.gray_gen\.gray_loop\[9\]\.gray\.no_ones_below_jm1
*904 w0\.gray_gen\.sine_cell\.eff_gray\.d1
*905 w0\.gray_gen\.sine_cell\.eff_gray\.d2
*906 w0\.gray_gen\.sine_cell\.eff_gray\.dff\.q
*907 w0\.gray_gen\.sine_cell\.eff_gray\.dff_n\.q
*908 w0\.ro_block_I\.out_mux_eve
*909 w0\.ro_block_I\.out_mux_pol_eve
*910 w0\.ro_block_I\.ro_pol\.eff\.eff_gray\.d1
*911 w0\.ro_block_I\.ro_pol\.eff\.eff_gray\.d2
*912 w0\.ro_block_I\.ro_pol\.eff\.eff_gray\.dff\.q
*913 w0\.ro_block_I\.ro_pol\.eff\.eff_gray\.dff_n\.q
*914 w0\.ro_block_I\.ro_pol\.eff_outb
*915 w0\.ro_block_I\.ro_pol_eve\.eff\.eff_gray\.d1
*916 w0\.ro_block_I\.ro_pol_eve\.eff\.eff_gray\.d2
*917 w0\.ro_block_I\.ro_pol_eve\.eff\.eff_gray\.dff\.q
*918 w0\.ro_block_I\.ro_pol_eve\.eff\.eff_gray\.dff_n\.q
*919 w0\.ro_block_I\.ro_pol_eve\.eff_outb
*920 w0\.ro_block_Q\.out_mux_eve
*921 w0\.ro_block_Q\.out_mux_pol_eve
*922 w0\.ro_block_Q\.ro_pol\.eff\.eff_gray\.d1
*923 w0\.ro_block_Q\.ro_pol\.eff\.eff_gray\.d2
*924 w0\.ro_block_Q\.ro_pol\.eff\.eff_gray\.dff\.q
*925 w0\.ro_block_Q\.ro_pol\.eff\.eff_gray\.dff_n\.q
*926 w0\.ro_block_Q\.ro_pol\.eff_outb
*927 w0\.ro_block_Q\.ro_pol_eve\.eff\.eff_gray\.d1
*928 w0\.ro_block_Q\.ro_pol_eve\.eff\.eff_gray\.d2
*929 w0\.ro_block_Q\.ro_pol_eve\.eff\.eff_gray\.dff\.q
*930 w0\.ro_block_Q\.ro_pol_eve\.eff\.eff_gray\.dff_n\.q
*931 w0\.ro_block_Q\.ro_pol_eve\.eff_outb
*932 w1\.POL_EVE_I\.comp_out
*933 w1\.POL_EVE_I\.dff1\.q
*934 w1\.POL_EVE_I\.dff2\.q
*935 w1\.POL_EVE_I\.dff3\.q
*936 w1\.POL_EVE_I\.eve
*937 w1\.POL_EVE_I\.polxevent
*938 w1\.POL_EVE_Q\.comp_out
*939 w1\.POL_EVE_Q\.dff1\.q
*940 w1\.POL_EVE_Q\.dff2\.q
*941 w1\.POL_EVE_Q\.dff3\.q
*942 w1\.POL_EVE_Q\.eve
*943 w1\.POL_EVE_Q\.polxevent
*944 w1\.bank1\.cos_out
*945 w1\.bank1\.sin_out
*946 w1\.cclk_I
*947 w1\.div2\.dff\.d
*948 w1\.fb1_I
*949 w1\.fb1_Q
*950 w1\.fb_block_I\.gs_f\.fb_gray_selector_loop\[0\]\.dl\.d
*951 w1\.fb_block_I\.gs_f\.fb_gray_selector_loop\[0\]\.eff3\.d1
*952 w1\.fb_block_I\.gs_f\.fb_gray_selector_loop\[0\]\.eff3\.d2
*953 w1\.fb_block_I\.gs_f\.fb_gray_selector_loop\[0\]\.eff3\.dff\.q
*954 w1\.fb_block_I\.gs_f\.fb_gray_selector_loop\[0\]\.eff3\.dff_n\.q
*955 w1\.fb_block_I\.gs_f\.fb_gray_selector_loop\[0\]\.t_buf\.ctrlb
*956 w1\.fb_block_I\.gs_f\.fb_gray_selector_loop\[0\]\.t_buf\.in
*957 w1\.fb_block_I\.gs_f\.fb_gray_selector_loop\[1\]\.eff3\.d1
*958 w1\.fb_block_I\.gs_f\.fb_gray_selector_loop\[1\]\.eff3\.d2
*959 w1\.fb_block_I\.gs_f\.fb_gray_selector_loop\[1\]\.eff3\.dff\.q
*960 w1\.fb_block_I\.gs_f\.fb_gray_selector_loop\[1\]\.eff3\.dff_n\.q
*961 w1\.fb_block_I\.gs_f\.fb_gray_selector_loop\[1\]\.t_buf\.ctrlb
*962 w1\.fb_block_I\.gs_f\.fb_gray_selector_loop\[1\]\.t_buf\.in
*963 w1\.fb_block_I\.gs_f\.fb_gray_selector_loop\[2\]\.eff3\.d1
*964 w1\.fb_block_I\.gs_f\.fb_gray_selector_loop\[2\]\.eff3\.d2
*965 w1\.fb_block_I\.gs_f\.fb_gray_selector_loop\[2\]\.eff3\.dff\.q
*966 w1\.fb_block_I\.gs_f\.fb_gray_selector_loop\[2\]\.eff3\.dff_n\.q
*967 w1\.fb_block_I\.gs_f\.fb_gray_selector_loop\[2\]\.t_buf\.ctrlb
*968 w1\.fb_block_I\.gs_f\.fb_gray_selector_loop\[2\]\.t_buf\.in
*969 w1\.fb_block_I\.gs_f\.fb_gray_selector_loop\[3\]\.eff3\.d1
*970 w1\.fb_block_I\.gs_f\.fb_gray_selector_loop\[3\]\.eff3\.d2
*971 w1\.fb_block_I\.gs_f\.fb_gray_selector_loop\[3\]\.eff3\.dff\.q
*972 w1\.fb_block_I\.gs_f\.fb_gray_selector_loop\[3\]\.eff3\.dff_n\.q
*973 w1\.fb_block_I\.gs_f\.fb_gray_selector_loop\[3\]\.t_buf\.ctrlb
*974 w1\.fb_block_I\.gs_f\.fb_gray_selector_loop\[3\]\.t_buf\.in
*975 w1\.fb_block_I\.gs_f\.fb_gray_selector_loop\[4\]\.eff3\.d1
*976 w1\.fb_block_I\.gs_f\.fb_gray_selector_loop\[4\]\.eff3\.d2
*977 w1\.fb_block_I\.gs_f\.fb_gray_selector_loop\[4\]\.eff3\.dff\.q
*978 w1\.fb_block_I\.gs_f\.fb_gray_selector_loop\[4\]\.eff3\.dff_n\.q
*979 w1\.fb_block_I\.gs_f\.fb_gray_selector_loop\[4\]\.t_buf\.ctrlb
*980 w1\.fb_block_I\.gs_f\.fb_gray_selector_loop\[4\]\.t_buf\.in
*981 w1\.fb_block_I\.gs_f\.fb_gray_selector_loop\[5\]\.eff3\.d1
*982 w1\.fb_block_I\.gs_f\.fb_gray_selector_loop\[5\]\.eff3\.d2
*983 w1\.fb_block_I\.gs_f\.fb_gray_selector_loop\[5\]\.eff3\.dff\.q
*984 w1\.fb_block_I\.gs_f\.fb_gray_selector_loop\[5\]\.eff3\.dff_n\.q
*985 w1\.fb_block_I\.gs_f\.fb_gray_selector_loop\[5\]\.t_buf\.ctrlb
*986 w1\.fb_block_I\.gs_f\.fb_gray_selector_loop\[5\]\.t_buf\.in
*987 w1\.fb_block_I\.gs_f\.fb_gray_selector_loop\[6\]\.eff3\.d1
*988 w1\.fb_block_I\.gs_f\.fb_gray_selector_loop\[6\]\.eff3\.d2
*989 w1\.fb_block_I\.gs_f\.fb_gray_selector_loop\[6\]\.eff3\.dff\.q
*990 w1\.fb_block_I\.gs_f\.fb_gray_selector_loop\[6\]\.eff3\.dff_n\.q
*991 w1\.fb_block_I\.gs_f\.fb_gray_selector_loop\[6\]\.t_buf\.ctrlb
*992 w1\.fb_block_I\.gs_f\.fb_gray_selector_loop\[6\]\.t_buf\.in
*993 w1\.fb_block_I\.gs_f\.fb_gray_selector_loop\[7\]\.eff3\.d1
*994 w1\.fb_block_I\.gs_f\.fb_gray_selector_loop\[7\]\.eff3\.d2
*995 w1\.fb_block_I\.gs_f\.fb_gray_selector_loop\[7\]\.eff3\.dff\.q
*996 w1\.fb_block_I\.gs_f\.fb_gray_selector_loop\[7\]\.eff3\.dff_n\.q
*997 w1\.fb_block_I\.gs_f\.fb_gray_selector_loop\[7\]\.t_buf\.ctrlb
*998 w1\.fb_block_I\.gs_f\.fb_gray_selector_loop\[7\]\.t_buf\.in
*999 w1\.fb_block_I\.gs_f\.fb_gray_selector_loop\[8\]\.eff3\.d1
*1000 w1\.fb_block_I\.gs_f\.fb_gray_selector_loop\[8\]\.eff3\.d2
*1001 w1\.fb_block_I\.gs_f\.fb_gray_selector_loop\[8\]\.eff3\.dff\.q
*1002 w1\.fb_block_I\.gs_f\.fb_gray_selector_loop\[8\]\.eff3\.dff_n\.q
*1003 w1\.fb_block_I\.gs_f\.fb_gray_selector_loop\[8\]\.t_buf\.ctrlb
*1004 w1\.fb_block_I\.gs_f\.fb_gray_selector_loop\[8\]\.t_buf\.in
*1005 w1\.fb_block_I\.gs_f\.fb_gray_selector_loop\[9\]\.eff3\.clk
*1006 w1\.fb_block_I\.gs_f\.fb_gray_selector_loop\[9\]\.eff3\.d1
*1007 w1\.fb_block_I\.gs_f\.fb_gray_selector_loop\[9\]\.eff3\.d2
*1008 w1\.fb_block_I\.gs_f\.fb_gray_selector_loop\[9\]\.eff3\.dff\.q
*1009 w1\.fb_block_I\.gs_f\.fb_gray_selector_loop\[9\]\.eff3\.dff_n\.q
*1010 w1\.fb_block_I\.gs_f\.fb_gray_selector_loop\[9\]\.t_buf\.ctrlb
*1011 w1\.fb_block_I\.gs_f\.fb_gray_selector_loop\[9\]\.t_buf\.in
*1012 w1\.fb_block_I\.ud_c\.bin_counter\[0\]\.cc\.q
*1013 w1\.fb_block_I\.ud_c\.bin_counter\[0\]\.cc\.tff1\.d
*1014 w1\.fb_block_I\.ud_c\.bin_counter\[10\]\.cc\.tff1\.d
*1015 w1\.fb_block_I\.ud_c\.bin_counter\[11\]\.cc\.tff1\.d
*1016 w1\.fb_block_I\.ud_c\.bin_counter\[12\]\.cc\.tff1\.d
*1017 w1\.fb_block_I\.ud_c\.bin_counter\[13\]\.cc\.tff1\.d
*1018 w1\.fb_block_I\.ud_c\.bin_counter\[1\]\.cc\.q
*1019 w1\.fb_block_I\.ud_c\.bin_counter\[1\]\.cc\.tff1\.d
*1020 w1\.fb_block_I\.ud_c\.bin_counter\[2\]\.cc\.q
*1021 w1\.fb_block_I\.ud_c\.bin_counter\[2\]\.cc\.tff1\.d
*1022 w1\.fb_block_I\.ud_c\.bin_counter\[3\]\.cc\.q