*SPEF "ieee 1481-1999"
*DESIGN "scalable_dual_core"
*DATE "11:11:11 Fri 11 11, 1111"
*VENDOR "OpenRCX"
*PROGRAM "Parallel Extraction"
*VERSION "1.0"
*DESIGN_FLOW "NAME_SCOPE LOCAL" "PIN_CAP NONE"
*DIVIDER /
*DELIMITER :
*BUS_DELIMITER []
*T_UNIT 1 NS
*C_UNIT 1 PF
*R_UNIT 1 OHM
*L_UNIT 1 HENRY

*NAME_MAP
*1 cclk_I[0]
*2 cclk_I[1]
*3 cclk_Q[0]
*4 cclk_Q[1]
*5 clk_master
*6 clk_master_out
*7 clkdiv2_I[0]
*8 clkdiv2_I[1]
*9 clkdiv2_Q[0]
*10 clkdiv2_Q[1]
*11 clkdiv2_in
*12 comp_high_I[0]
*13 comp_high_I[1]
*14 comp_high_Q[0]
*15 comp_high_Q[1]
*16 cos_out[0]
*17 cos_out[1]
*18 cos_outb[0]
*19 cos_outb[1]
*20 div2out
*21 fb1_I[0]
*22 fb1_I[1]
*23 fb1_Q[0]
*24 fb1_Q[1]
*25 fb2_I[0]
*26 fb2_I[1]
*27 fb2_Q[0]
*28 fb2_Q[1]
*29 gray_clk_in[0]
*30 gray_clk_in[1]
*31 gray_clk_in[2]
*32 gray_clk_in[3]
*33 gray_clk_in[4]
*34 gray_clk_in[5]
*35 gray_clk_in[6]
*36 gray_clk_in[7]
*37 gray_clk_in[8]
*38 gray_clk_in[9]
*39 gray_clk_out[10]
*40 gray_clk_out[1]
*41 gray_clk_out[2]
*42 gray_clk_out[3]
*43 gray_clk_out[4]
*44 gray_clk_out[5]
*45 gray_clk_out[6]
*46 gray_clk_out[7]
*47 gray_clk_out[8]
*48 gray_clk_out[9]
*49 no_ones_below_in[0]
*50 no_ones_below_in[1]
*51 no_ones_below_in[2]
*52 no_ones_below_out[0]
*53 no_ones_below_out[1]
*54 no_ones_below_out[2]
*55 phi1b_dig_I[0]
*56 phi1b_dig_I[1]
*57 phi1b_dig_Q[0]
*58 phi1b_dig_Q[1]
*59 read_out_I[0]
*60 read_out_I[1]
*61 read_out_I_top[0]
*62 read_out_I_top[1]
*63 read_out_Q[0]
*64 read_out_Q[1]
*65 read_out_Q_top[0]
*66 read_out_Q_top[1]
*67 rstb
*68 rstb_out
*69 sin_out[0]
*70 sin_out[1]
*71 sin_outb[0]
*72 sin_outb[1]
*73 ud_en
*74 ud_en_out
*77 _0004_
*78 _0007_
*79 _0010_
*80 _0013_
*81 _0014_
*82 _0015_
*83 _0016_
*84 _0017_
*85 _0018_
*86 _0019_
*87 _0020_
*88 _0021_
*89 _0022_
*90 _0023_
*91 _0024_
*92 _0025_
*93 _0026_
*94 _0027_
*95 _0028_
*96 _0029_
*97 _0030_
*98 _0031_
*99 _0032_
*100 _0033_
*101 _0034_
*102 _0035_
*103 _0036_
*104 _0037_
*105 _0038_
*106 _0039_
*107 _0040_
*108 _0041_
*109 _0042_
*110 _0043_
*111 _0044_
*112 _0045_
*113 _0046_
*114 _0047_
*115 _0048_
*116 _0049_
*117 _0050_
*118 _0051_
*119 _0052_
*120 _0053_
*121 _0054_
*122 _0055_
*123 _0056_
*124 _0057_
*125 _0058_
*126 _0059_
*127 _0060_
*128 _0061_
*129 _0062_
*130 _0063_
*131 _0064_
*132 _0065_
*133 _0066_
*134 _0067_
*135 _0068_
*136 _0069_
*137 _0070_
*138 _0071_
*139 _0072_
*140 _0073_
*141 _0074_
*142 _0079_
*143 _0082_
*144 _0085_
*145 _0088_
*146 _0089_
*147 _0090_
*148 _0091_
*149 _0092_
*150 _0093_
*151 _0094_
*152 _0095_
*153 _0096_
*154 _0097_
*155 _0098_
*156 _0099_
*157 _0100_
*158 _0101_
*159 _0102_
*160 _0103_
*161 _0104_
*162 _0105_
*163 _0106_
*164 _0107_
*165 _0108_
*166 _0109_
*167 _0110_
*168 _0111_
*169 _0112_
*170 _0113_
*171 _0114_
*172 _0115_
*173 _0116_
*174 _0117_
*175 _0118_
*176 _0119_
*177 _0120_
*178 _0121_
*179 _0122_
*180 _0123_
*181 _0124_
*182 _0125_
*183 _0126_
*184 _0127_
*185 _0128_
*186 _0129_
*187 _0130_
*188 _0131_
*189 _0132_
*190 _0133_
*191 _0134_
*192 _0135_
*193 _0136_
*194 _0137_
*195 _0138_
*196 _0139_
*197 _0140_
*198 _0141_
*199 _0142_
*200 _0143_
*201 _0144_
*202 _0145_
*203 _0146_
*204 _0147_
*205 _0148_
*206 _0149_
*207 _0150_
*208 _0151_
*209 _0152_
*210 _0153_
*211 _0154_
*212 _0155_
*213 _0156_
*214 _0157_
*215 _0158_
*216 _0159_
*217 _0160_
*218 _0161_
*219 _0162_
*220 _0163_
*221 _0164_
*222 _0165_
*223 _0166_
*224 _0167_
*225 _0168_
*226 _0169_
*227 _0170_
*228 _0171_
*229 _0172_
*230 _0173_
*231 _0174_
*232 _0175_
*233 _0176_
*234 _0177_
*235 _0178_
*236 _0179_
*237 _0180_
*238 _0181_
*239 _0182_
*240 _0183_
*241 _0184_
*242 _0185_
*243 _0186_
*244 _0187_
*245 _0188_
*246 _0189_
*247 _0190_
*248 _0191_
*249 _0192_
*250 _0193_
*251 _0194_
*252 _0195_
*253 _0196_
*254 _0197_
*255 _0198_
*256 _0199_
*257 _0200_
*258 _0201_
*259 _0202_
*260 _0203_
*261 _0204_
*262 _0205_
*263 _0206_
*264 _0207_
*265 _0208_
*266 _0209_
*267 _0210_
*268 _0211_
*269 _0212_
*270 _0213_
*271 _0214_
*272 _0215_
*273 _0216_
*274 _0217_
*275 _0218_
*276 _0219_
*277 _0220_
*278 _0221_
*279 _0222_
*280 _0223_
*281 _0224_
*282 _0225_
*283 _0226_
*284 _0227_
*285 _0228_
*286 _0229_
*287 _0230_
*288 _0231_
*289 _0232_
*290 _0233_
*291 _0234_
*292 _0235_
*293 _0236_
*294 _0237_
*295 _0238_
*296 _0239_
*297 _0240_
*298 _0241_
*299 _0242_
*300 _0243_
*301 _0244_
*302 _0245_
*303 _0246_
*304 _0247_
*305 _0248_
*306 _0249_
*307 _0250_
*308 _0251_
*309 _0252_
*310 _0253_
*311 _0254_
*312 _0255_
*313 _0256_
*314 _0257_
*315 _0258_
*316 _0259_
*317 _0260_
*318 _0261_
*319 _0262_
*320 _0263_
*321 _0264_
*322 _0265_
*323 _0266_
*324 _0267_
*325 _0268_
*326 _0269_
*327 _0270_
*328 _0271_
*329 _0272_
*330 _0273_
*331 _0274_
*332 _0275_
*333 _0276_
*334 _0277_
*335 _0278_
*336 _0279_
*337 _0280_
*338 _0281_
*339 _0282_
*340 _0283_
*341 _0284_
*342 _0285_
*343 _0286_
*344 _0287_
*345 _0288_
*346 _0289_
*347 _0290_
*348 _0291_
*349 _0292_
*350 _0293_
*351 _0294_
*352 _0295_
*353 _0296_
*354 _0297_
*355 _0298_
*356 _0299_
*357 _0300_
*358 _0301_
*359 _0302_
*360 _0303_
*361 _0304_
*362 _0305_
*363 _0306_
*364 _0307_
*365 _0308_
*366 _0309_
*367 _0310_
*368 _0311_
*369 _0312_
*370 _0313_
*371 _0314_
*372 _0315_
*373 _0316_
*374 _0317_
*375 _0318_
*376 _0319_
*377 _0320_
*378 _0321_
*379 _0322_
*380 _0323_
*381 _0324_
*382 _0325_
*383 _0326_
*384 _0327_
*385 _0328_
*386 _0329_
*387 _0330_
*388 _0331_
*389 _0332_
*390 _0333_
*391 _0334_
*392 _0335_
*393 _0336_
*394 _0337_
*395 _0338_
*396 _0339_
*397 _0340_
*398 _0341_
*399 _0342_
*400 _0343_
*401 _0344_
*402 _0345_
*403 _0346_
*404 _0347_
*405 _0348_
*406 _0349_
*407 _0350_
*408 _0351_
*409 _0352_
*410 _0353_
*411 _0354_
*412 _0355_
*413 _0356_
*414 _0357_
*415 _0358_
*416 _0359_
*417 _0360_
*418 _0361_
*419 _0362_
*420 _0363_
*421 _0364_
*422 _0365_
*423 _0366_
*424 _0367_
*425 _0368_
*426 _0369_
*427 _0370_
*428 _0371_
*429 _0372_
*430 _0373_
*431 _0374_
*432 _0375_
*433 _0376_
*434 _0377_
*435 _0378_
*436 _0379_
*437 _0380_
*438 _0381_
*439 _0382_
*440 _0383_
*441 _0384_
*442 _0385_
*443 _0386_
*444 _0387_
*445 _0388_
*446 _0389_
*447 _0390_
*448 _0391_
*449 _0392_
*450 _0393_
*451 _0394_
*452 _0395_
*453 _0396_
*454 _0397_
*455 _0398_
*456 _0399_
*457 _0400_
*458 _0401_
*459 _0402_
*460 _0403_
*461 _0404_
*462 _0405_
*463 _0406_
*464 _0407_
*465 _0408_
*466 _0409_
*467 _0410_
*468 _0411_
*469 _0412_
*470 _0413_
*471 _0414_
*472 _0415_
*473 _0416_
*474 _0417_
*475 _0418_
*476 _0419_
*477 _0420_
*478 _0421_
*479 _0422_
*480 _0423_
*481 _0424_
*482 _0425_
*483 _0426_
*484 _0427_
*485 _0428_
*486 _0429_
*487 _0430_
*488 _0431_
*489 _0432_
*490 _0433_
*491 _0434_
*492 _0435_
*493 _0436_
*494 _0437_
*495 _0438_
*496 _0439_
*497 _0440_
*498 _0441_
*499 _0442_
*500 _0443_
*501 _0444_
*502 _0445_
*503 _0446_
*504 _0447_
*505 _0448_
*506 _0449_
*507 clknet_0__0258_
*508 clknet_0__0264_
*509 clknet_0__0274_
*510 clknet_0__0281_
*511 clknet_0_clk_master
*512 clknet_1_0_0__0258_
*513 clknet_1_0_0__0264_
*514 clknet_1_0_0__0274_
*515 clknet_1_0_0__0281_
*516 clknet_1_0_0_clk_master
*517 clknet_1_1_0__0258_
*518 clknet_1_1_0__0264_
*519 clknet_1_1_0__0274_
*520 clknet_1_1_0__0281_
*521 clknet_1_1_0_clk_master
*522 net1
*523 net10
*524 net11
*525 net12
*526 net13
*527 net14
*528 net15
*529 net16
*530 net17
*531 net18
*532 net19
*533 net2
*534 net20
*535 net21
*536 net22
*537 net23
*538 net24
*539 net25
*540 net26
*541 net27
*542 net28
*543 net29
*544 net3
*545 net30
*546 net31
*547 net32
*548 net33
*549 net34
*550 net35
*551 net36
*552 net37
*553 net38
*554 net39
*555 net4
*556 net40
*557 net41
*558 net42
*559 net43
*560 net44
*561 net45
*562 net46
*563 net47
*564 net48
*565 net49
*566 net5
*567 net50
*568 net51
*569 net52
*570 net53
*571 net54
*572 net55
*573 net56
*574 net57
*575 net58
*576 net59
*577 net6
*578 net60
*579 net61
*580 net62
*581 net63
*582 net64
*583 net65
*584 net66
*585 net67
*586 net68
*587 net69
*588 net7
*589 net70
*590 net71
*591 net72
*592 net73
*593 net74
*594 net75
*595 net76
*596 net77
*597 net78
*598 net79
*599 net8
*600 net80
*601 net81
*602 net82
*603 net83
*604 net84
*605 net85
*606 net86
*607 net87
*608 net88
*609 net89
*610 net9
*611 net90
*612 net91
*613 net92
*614 net93
*615 w2\.POL_EVE_I\.comp_out
*616 w2\.POL_EVE_I\.dff1\.q
*617 w2\.POL_EVE_I\.dff2\.q
*618 w2\.POL_EVE_I\.dff3\.q
*619 w2\.POL_EVE_I\.eve
*620 w2\.POL_EVE_I\.polxevent
*621 w2\.POL_EVE_Q\.comp_out
*622 w2\.POL_EVE_Q\.dff1\.q
*623 w2\.POL_EVE_Q\.dff2\.q
*624 w2\.POL_EVE_Q\.dff3\.q
*625 w2\.POL_EVE_Q\.eve
*626 w2\.POL_EVE_Q\.polxevent
*627 w2\.bank1\.cos_out
*628 w2\.bank1\.sin_out
*629 w2\.cclk_I
*630 w2\.div2\.dff\.d
*631 w2\.div2\.dff\.q
*632 w2\.fb1_I
*633 w2\.fb1_Q
*634 w2\.fb_block_I\.gs_f\.fb_gray_selector_loop\[0\]\.dl\.d
*635 w2\.fb_block_I\.gs_f\.fb_gray_selector_loop\[0\]\.eff3\.d1
*636 w2\.fb_block_I\.gs_f\.fb_gray_selector_loop\[0\]\.eff3\.d2
*637 w2\.fb_block_I\.gs_f\.fb_gray_selector_loop\[0\]\.eff3\.dff\.q
*638 w2\.fb_block_I\.gs_f\.fb_gray_selector_loop\[0\]\.eff3\.dff_n\.q
*639 w2\.fb_block_I\.gs_f\.fb_gray_selector_loop\[0\]\.t_buf\.ctrlb
*640 w2\.fb_block_I\.gs_f\.fb_gray_selector_loop\[0\]\.t_buf\.in
*641 w2\.fb_block_I\.gs_f\.fb_gray_selector_loop\[1\]\.eff3\.d1
*642 w2\.fb_block_I\.gs_f\.fb_gray_selector_loop\[1\]\.eff3\.d2
*643 w2\.fb_block_I\.gs_f\.fb_gray_selector_loop\[1\]\.eff3\.dff\.q
*644 w2\.fb_block_I\.gs_f\.fb_gray_selector_loop\[1\]\.eff3\.dff_n\.q
*645 w2\.fb_block_I\.gs_f\.fb_gray_selector_loop\[1\]\.t_buf\.ctrlb
*646 w2\.fb_block_I\.gs_f\.fb_gray_selector_loop\[1\]\.t_buf\.in
*647 w2\.fb_block_I\.gs_f\.fb_gray_selector_loop\[2\]\.eff3\.d1
*648 w2\.fb_block_I\.gs_f\.fb_gray_selector_loop\[2\]\.eff3\.d2
*649 w2\.fb_block_I\.gs_f\.fb_gray_selector_loop\[2\]\.eff3\.dff\.q
*650 w2\.fb_block_I\.gs_f\.fb_gray_selector_loop\[2\]\.eff3\.dff_n\.q
*651 w2\.fb_block_I\.gs_f\.fb_gray_selector_loop\[2\]\.t_buf\.ctrlb
*652 w2\.fb_block_I\.gs_f\.fb_gray_selector_loop\[2\]\.t_buf\.in
*653 w2\.fb_block_I\.gs_f\.fb_gray_selector_loop\[3\]\.eff3\.d1
*654 w2\.fb_block_I\.gs_f\.fb_gray_selector_loop\[3\]\.eff3\.d2
*655 w2\.fb_block_I\.gs_f\.fb_gray_selector_loop\[3\]\.eff3\.dff\.q
*656 w2\.fb_block_I\.gs_f\.fb_gray_selector_loop\[3\]\.eff3\.dff_n\.q
*657 w2\.fb_block_I\.gs_f\.fb_gray_selector_loop\[3\]\.t_buf\.ctrlb
*658 w2\.fb_block_I\.gs_f\.fb_gray_selector_loop\[3\]\.t_buf\.in
*659 w2\.fb_block_I\.gs_f\.fb_gray_selector_loop\[4\]\.eff3\.d1
*660 w2\.fb_block_I\.gs_f\.fb_gray_selector_loop\[4\]\.eff3\.d2
*661 w2\.fb_block_I\.gs_f\.fb_gray_selector_loop\[4\]\.eff3\.dff\.q
*662 w2\.fb_block_I\.gs_f\.fb_gray_selector_loop\[4\]\.eff3\.dff_n\.q
*663 w2\.fb_block_I\.gs_f\.fb_gray_selector_loop\[4\]\.t_buf\.ctrlb
*664 w2\.fb_block_I\.gs_f\.fb_gray_selector_loop\[4\]\.t_buf\.in
*665 w2\.fb_block_I\.gs_f\.fb_gray_selector_loop\[5\]\.eff3\.d1
*666 w2\.fb_block_I\.gs_f\.fb_gray_selector_loop\[5\]\.eff3\.d2
*667 w2\.fb_block_I\.gs_f\.fb_gray_selector_loop\[5\]\.eff3\.dff\.q
*668 w2\.fb_block_I\.gs_f\.fb_gray_selector_loop\[5\]\.eff3\.dff_n\.q
*669 w2\.fb_block_I\.gs_f\.fb_gray_selector_loop\[5\]\.t_buf\.ctrlb
*670 w2\.fb_block_I\.gs_f\.fb_gray_selector_loop\[5\]\.t_buf\.in
*671 w2\.fb_block_I\.gs_f\.fb_gray_selector_loop\[6\]\.eff3\.d1
*672 w2\.fb_block_I\.gs_f\.fb_gray_selector_loop\[6\]\.eff3\.d2
*673 w2\.fb_block_I\.gs_f\.fb_gray_selector_loop\[6\]\.eff3\.dff\.q
*674 w2\.fb_block_I\.gs_f\.fb_gray_selector_loop\[6\]\.eff3\.dff_n\.q
*675 w2\.fb_block_I\.gs_f\.fb_gray_selector_loop\[6\]\.t_buf\.ctrlb
*676 w2\.fb_block_I\.gs_f\.fb_gray_selector_loop\[6\]\.t_buf\.in
*677 w2\.fb_block_I\.gs_f\.fb_gray_selector_loop\[7\]\.eff3\.d1
*678 w2\.fb_block_I\.gs_f\.fb_gray_selector_loop\[7\]\.eff3\.d2
*679 w2\.fb_block_I\.gs_f\.fb_gray_selector_loop\[7\]\.eff3\.dff\.q
*680 w2\.fb_block_I\.gs_f\.fb_gray_selector_loop\[7\]\.eff3\.dff_n\.q
*681 w2\.fb_block_I\.gs_f\.fb_gray_selector_loop\[7\]\.t_buf\.ctrlb
*682 w2\.fb_block_I\.gs_f\.fb_gray_selector_loop\[7\]\.t_buf\.in
*683 w2\.fb_block_I\.gs_f\.fb_gray_selector_loop\[8\]\.eff3\.d1
*684 w2\.fb_block_I\.gs_f\.fb_gray_selector_loop\[8\]\.eff3\.d2
*685 w2\.fb_block_I\.gs_f\.fb_gray_selector_loop\[8\]\.eff3\.dff\.q
*686 w2\.fb_block_I\.gs_f\.fb_gray_selector_loop\[8\]\.eff3\.dff_n\.q
*687 w2\.fb_block_I\.gs_f\.fb_gray_selector_loop\[8\]\.t_buf\.ctrlb
*688 w2\.fb_block_I\.gs_f\.fb_gray_selector_loop\[8\]\.t_buf\.in
*689 w2\.fb_block_I\.gs_f\.fb_gray_selector_loop\[9\]\.eff3\.clk
*690 w2\.fb_block_I\.gs_f\.fb_gray_selector_loop\[9\]\.eff3\.d1
*691 w2\.fb_block_I\.gs_f\.fb_gray_selector_loop\[9\]\.eff3\.d2
*692 w2\.fb_block_I\.gs_f\.fb_gray_selector_loop\[9\]\.eff3\.dff\.q
*693 w2\.fb_block_I\.gs_f\.fb_gray_selector_loop\[9\]\.eff3\.dff_n\.q
*694 w2\.fb_block_I\.gs_f\.fb_gray_selector_loop\[9\]\.t_buf\.ctrlb
*695 w2\.fb_block_I\.gs_f\.fb_gray_selector_loop\[9\]\.t_buf\.in
*696 w2\.fb_block_I\.ud_c\.bin_counter\[0\]\.cc\.q
*697 w2\.fb_block_I\.ud_c\.bin_counter\[0\]\.cc\.tff1\.d
*698 w2\.fb_block_I\.ud_c\.bin_counter\[10\]\.cc\.tff1\.d
*699 w2\.fb_block_I\.ud_c\.bin_counter\[11\]\.cc\.tff1\.d
*700 w2\.fb_block_I\.ud_c\.bin_counter\[12\]\.cc\.tff1\.d
*701 w2\.fb_block_I\.ud_c\.bin_counter\[13\]\.cc\.tff1\.d
*702 w2\.fb_block_I\.ud_c\.bin_counter\[1\]\.cc\.q
*703 w2\.fb_block_I\.ud_c\.bin_counter\[1\]\.cc\.tff1\.d
*704 w2\.fb_block_I\.ud_c\.bin_counter\[2\]\.cc\.q
*705 w2\.fb_block_I\.ud_c\.bin_counter\[2\]\.cc\.tff1\.d
*706 w2\.fb_block_I\.ud_c\.bin_counter\[3\]\.cc\.q
*707 w2\.fb_block_I\.ud_c\.bin_counter\[3\]\.cc\.tff1\.d
*708 w2\.fb_block_I\.ud_c\.bin_counter\[4\]\.cc\.q
*709 w2\.fb_block_I\.ud_c\.bin_counter\[4\]\.cc\.tff1\.d
*710 w2\.fb_block_I\.ud_c\.bin_counter\[5\]\.cc\.tff1\.d
*711 w2\.fb_block_I\.ud_c\.bin_counter\[6\]\.cc\.tff1\.d
*712 w2\.fb_block_I\.ud_c\.bin_counter\[7\]\.cc\.tff1\.d
*713 w2\.fb_block_I\.ud_c\.bin_counter\[8\]\.cc\.tff1\.d
*714 w2\.fb_block_I\.ud_c\.bin_counter\[9\]\.cc\.tff1\.d
*715 w2\.fb_block_I\.ud_c\.cc1\.q
*716 w2\.fb_block_I\.ud_c\.cc1\.tff1\.d
*717 w2\.fb_block_I\.ud_c\.tff_end\.d
*718 w2\.fb_block_Q\.gs_f\.fb_gray_selector_loop\[0\]\.dl\.d
*719 w2\.fb_block_Q\.gs_f\.fb_gray_selector_loop\[0\]\.eff3\.d1
*720 w2\.fb_block_Q\.gs_f\.fb_gray_selector_loop\[0\]\.eff3\.d2
*721 w2\.fb_block_Q\.gs_f\.fb_gray_selector_loop\[0\]\.eff3\.dff\.q
*722 w2\.fb_block_Q\.gs_f\.fb_gray_selector_loop\[0\]\.eff3\.dff_n\.q
*723 w2\.fb_block_Q\.gs_f\.fb_gray_selector_loop\[0\]\.t_buf\.ctrlb
*724 w2\.fb_block_Q\.gs_f\.fb_gray_selector_loop\[0\]\.t_buf\.in
*725 w2\.fb_block_Q\.gs_f\.fb_gray_selector_loop\[1\]\.eff3\.d1
*726 w2\.fb_block_Q\.gs_f\.fb_gray_selector_loop\[1\]\.eff3\.d2
*727 w2\.fb_block_Q\.gs_f\.fb_gray_selector_loop\[1\]\.eff3\.dff\.q
*728 w2\.fb_block_Q\.gs_f\.fb_gray_selector_loop\[1\]\.eff3\.dff_n\.q
*729 w2\.fb_block_Q\.gs_f\.fb_gray_selector_loop\[1\]\.t_buf\.ctrlb
*730 w2\.fb_block_Q\.gs_f\.fb_gray_selector_loop\[1\]\.t_buf\.in
*731 w2\.fb_block_Q\.gs_f\.fb_gray_selector_loop\[2\]\.eff3\.d1
*732 w2\.fb_block_Q\.gs_f\.fb_gray_selector_loop\[2\]\.eff3\.d2
*733 w2\.fb_block_Q\.gs_f\.fb_gray_selector_loop\[2\]\.eff3\.dff\.q
*734 w2\.fb_block_Q\.gs_f\.fb_gray_selector_loop\[2\]\.eff3\.dff_n\.q
*735 w2\.fb_block_Q\.gs_f\.fb_gray_selector_loop\[2\]\.t_buf\.ctrlb
*736 w2\.fb_block_Q\.gs_f\.fb_gray_selector_loop\[2\]\.t_buf\.in
*737 w2\.fb_block_Q\.gs_f\.fb_gray_selector_loop\[3\]\.eff3\.d1
*738 w2\.fb_block_Q\.gs_f\.fb_gray_selector_loop\[3\]\.eff3\.d2
*739 w2\.fb_block_Q\.gs_f\.fb_gray_selector_loop\[3\]\.eff3\.dff\.q
*740 w2\.fb_block_Q\.gs_f\.fb_gray_selector_loop\[3\]\.eff3\.dff_n\.q
*741 w2\.fb_block_Q\.gs_f\.fb_gray_selector_loop\[3\]\.t_buf\.ctrlb
*742 w2\.fb_block_Q\.gs_f\.fb_gray_selector_loop\[3\]\.t_buf\.in
*743 w2\.fb_block_Q\.gs_f\.fb_gray_selector_loop\[4\]\.eff3\.d1
*744 w2\.fb_block_Q\.gs_f\.fb_gray_selector_loop\[4\]\.eff3\.d2
*745 w2\.fb_block_Q\.gs_f\.fb_gray_selector_loop\[4\]\.eff3\.dff\.q
*746 w2\.fb_block_Q\.gs_f\.fb_gray_selector_loop\[4\]\.eff3\.dff_n\.q
*747 w2\.fb_block_Q\.gs_f\.fb_gray_selector_loop\[4\]\.t_buf\.ctrlb
*748 w2\.fb_block_Q\.gs_f\.fb_gray_selector_loop\[4\]\.t_buf\.in
*749 w2\.fb_block_Q\.gs_f\.fb_gray_selector_loop\[5\]\.eff3\.d1
*750 w2\.fb_block_Q\.gs_f\.fb_gray_selector_loop\[5\]\.eff3\.d2
*751 w2\.fb_block_Q\.gs_f\.fb_gray_selector_loop\[5\]\.eff3\.dff\.q
*752 w2\.fb_block_Q\.gs_f\.fb_gray_selector_loop\[5\]\.eff3\.dff_n\.q
*753 w2\.fb_block_Q\.gs_f\.fb_gray_selector_loop\[5\]\.t_buf\.ctrlb
*754 w2\.fb_block_Q\.gs_f\.fb_gray_selector_loop\[5\]\.t_buf\.in
*755 w2\.fb_block_Q\.gs_f\.fb_gray_selector_loop\[6\]\.eff3\.d1
*756 w2\.fb_block_Q\.gs_f\.fb_gray_selector_loop\[6\]\.eff3\.d2
*757 w2\.fb_block_Q\.gs_f\.fb_gray_selector_loop\[6\]\.eff3\.dff\.q
*758 w2\.fb_block_Q\.gs_f\.fb_gray_selector_loop\[6\]\.eff3\.dff_n\.q
*759 w2\.fb_block_Q\.gs_f\.fb_gray_selector_loop\[6\]\.t_buf\.ctrlb
*760 w2\.fb_block_Q\.gs_f\.fb_gray_selector_loop\[6\]\.t_buf\.in
*761 w2\.fb_block_Q\.gs_f\.fb_gray_selector_loop\[7\]\.eff3\.d1
*762 w2\.fb_block_Q\.gs_f\.fb_gray_selector_loop\[7\]\.eff3\.d2
*763 w2\.fb_block_Q\.gs_f\.fb_gray_selector_loop\[7\]\.eff3\.dff\.q
*764 w2\.fb_block_Q\.gs_f\.fb_gray_selector_loop\[7\]\.eff3\.dff_n\.q
*765 w2\.fb_block_Q\.gs_f\.fb_gray_selector_loop\[7\]\.t_buf\.ctrlb
*766 w2\.fb_block_Q\.gs_f\.fb_gray_selector_loop\[7\]\.t_buf\.in
*767 w2\.fb_block_Q\.gs_f\.fb_gray_selector_loop\[8\]\.eff3\.d1
*768 w2\.fb_block_Q\.gs_f\.fb_gray_selector_loop\[8\]\.eff3\.d2
*769 w2\.fb_block_Q\.gs_f\.fb_gray_selector_loop\[8\]\.eff3\.dff\.q
*770 w2\.fb_block_Q\.gs_f\.fb_gray_selector_loop\[8\]\.eff3\.dff_n\.q
*771 w2\.fb_block_Q\.gs_f\.fb_gray_selector_loop\[8\]\.t_buf\.ctrlb
*772 w2\.fb_block_Q\.gs_f\.fb_gray_selector_loop\[8\]\.t_buf\.in
*773 w2\.fb_block_Q\.gs_f\.fb_gray_selector_loop\[9\]\.eff3\.d1
*774 w2\.fb_block_Q\.gs_f\.fb_gray_selector_loop\[9\]\.eff3\.d2
*775 w2\.fb_block_Q\.gs_f\.fb_gray_selector_loop\[9\]\.eff3\.dff\.q
*776 w2\.fb_block_Q\.gs_f\.fb_gray_selector_loop\[9\]\.eff3\.dff_n\.q
*777 w2\.fb_block_Q\.gs_f\.fb_gray_selector_loop\[9\]\.t_buf\.ctrlb
*778 w2\.fb_block_Q\.gs_f\.fb_gray_selector_loop\[9\]\.t_buf\.in
*779 w2\.fb_block_Q\.ud_c\.bin_counter\[0\]\.cc\.q
*780 w2\.fb_block_Q\.ud_c\.bin_counter\[0\]\.cc\.tff1\.d
*781 w2\.fb_block_Q\.ud_c\.bin_counter\[10\]\.cc\.tff1\.d
*782 w2\.fb_block_Q\.ud_c\.bin_counter\[11\]\.cc\.tff1\.d
*783 w2\.fb_block_Q\.ud_c\.bin_counter\[12\]\.cc\.tff1\.d
*784 w2\.fb_block_Q\.ud_c\.bin_counter\[13\]\.cc\.tff1\.d
*785 w2\.fb_block_Q\.ud_c\.bin_counter\[1\]\.cc\.q
*786 w2\.fb_block_Q\.ud_c\.bin_counter\[1\]\.cc\.tff1\.d
*787 w2\.fb_block_Q\.ud_c\.bin_counter\[2\]\.cc\.q
*788 w2\.fb_block_Q\.ud_c\.bin_counter\[2\]\.cc\.tff1\.d
*789 w2\.fb_block_Q\.ud_c\.bin_counter\[3\]\.cc\.q
*790 w2\.fb_block_Q\.ud_c\.bin_counter\[3\]\.cc\.tff1\.d
*791 w2\.fb_block_Q\.ud_c\.bin_counter\[4\]\.cc\.q
*792 w2\.fb_block_Q\.ud_c\.bin_counter\[4\]\.cc\.tff1\.d
*793 w2\.fb_block_Q\.ud_c\.bin_counter\[5\]\.cc\.tff1\.d
*794 w2\.fb_block_Q\.ud_c\.bin_counter\[6\]\.cc\.tff1\.d
*795 w2\.fb_block_Q\.ud_c\.bin_counter\[7\]\.cc\.tff1\.d
*796 w2\.fb_block_Q\.ud_c\.bin_counter\[8\]\.cc\.tff1\.d
*797 w2\.fb_block_Q\.ud_c\.bin_counter\[9\]\.cc\.tff1\.d
*798 w2\.fb_block_Q\.ud_c\.cc1\.q
*799 w2\.fb_block_Q\.ud_c\.cc1\.tff1\.d
*800 w2\.fb_block_Q\.ud_c\.tff_end\.d
*801 w2\.gray_tree\.gray\.eff_gray\.d1
*802 w2\.gray_tree\.gray\.eff_gray\.d2
*803 w2\.gray_tree\.gray\.eff_gray\.dff\.q
*804 w2\.gray_tree\.gray\.eff_gray\.dff_n\.q
*805 w2\.gray_tree\.gray\.no_ones_below_jm1
*806 w2\.gray_tree\.sine_cell2\.eff_gray\.d1
*807 w2\.gray_tree\.sine_cell2\.eff_gray\.d2
*808 w2\.gray_tree\.sine_cell2\.eff_gray\.dff\.q
*809 w2\.gray_tree\.sine_cell2\.eff_gray\.dff_n\.q
*810 w2\.ro_block_I\.out_mux_eve
*811 w2\.ro_block_I\.out_mux_pol_eve
*812 w2\.ro_block_I\.ro_pol\.eff\.d1
*813 w2\.ro_block_I\.ro_pol\.eff\.d2
*814 w2\.ro_block_I\.ro_pol\.eff\.dff\.q
*815 w2\.ro_block_I\.ro_pol\.eff\.dff_n\.q
*816 w2\.ro_block_I\.ro_pol\.eff_outb
*817 w2\.ro_block_I\.ro_pol_eve\.eff\.d1
*818 w2\.ro_block_I\.ro_pol_eve\.eff\.d2
*819 w2\.ro_block_I\.ro_pol_eve\.eff\.dff\.q
*820 w2\.ro_block_I\.ro_pol_eve\.eff\.dff_n\.q
*821 w2\.ro_block_I\.ro_pol_eve\.eff_outb
*822 w2\.ro_block_Q\.out_mux_eve
*823 w2\.ro_block_Q\.out_mux_pol_eve
*824 w2\.ro_block_Q\.ro_pol\.eff\.d1
*825 w2\.ro_block_Q\.ro_pol\.eff\.d2
*826 w2\.ro_block_Q\.ro_pol\.eff\.dff\.q
*827 w2\.ro_block_Q\.ro_pol\.eff\.dff_n\.q
*828 w2\.ro_block_Q\.ro_pol\.eff_outb
*829 w2\.ro_block_Q\.ro_pol_eve\.eff\.d1
*830 w2\.ro_block_Q\.ro_pol_eve\.eff\.d2
*831 w2\.ro_block_Q\.ro_pol_eve\.eff\.dff\.q
*832 w2\.ro_block_Q\.ro_pol_eve\.eff\.dff_n\.q
*833 w2\.ro_block_Q\.ro_pol_eve\.eff_outb
*834 w3\.POL_EVE_I\.comp_out
*835 w3\.POL_EVE_I\.dff1\.q
*836 w3\.POL_EVE_I\.dff2\.q
*837 w3\.POL_EVE_I\.dff3\.q
*838 w3\.POL_EVE_I\.eve
*839 w3\.POL_EVE_I\.polxevent
*840 w3\.POL_EVE_Q\.comp_out
*841 w3\.POL_EVE_Q\.dff1\.q
*842 w3\.POL_EVE_Q\.dff2\.q
*843 w3\.POL_EVE_Q\.dff3\.q
*844 w3\.POL_EVE_Q\.eve
*845 w3\.POL_EVE_Q\.polxevent
*846 w3\.bank1\.cos_out
*847 w3\.bank1\.sin_out
*848 w3\.cclk_I
*849 w3\.div2\.dff\.d
*850 w3\.fb1_I
*851 w3\.fb1_Q
*852 w3\.fb_block_I\.gs_f\.fb_gray_selector_loop\[0\]\.dl\.d
*853 w3\.fb_block_I\.gs_f\.fb_gray_selector_loop\[0\]\.eff3\.d1
*854 w3\.fb_block_I\.gs_f\.fb_gray_selector_loop\[0\]\.eff3\.d2
*855 w3\.fb_block_I\.gs_f\.fb_gray_selector_loop\[0\]\.eff3\.dff\.q
*856 w3\.fb_block_I\.gs_f\.fb_gray_selector_loop\[0\]\.eff3\.dff_n\.q
*857 w3\.fb_block_I\.gs_f\.fb_gray_selector_loop\[0\]\.t_buf\.ctrlb
*858 w3\.fb_block_I\.gs_f\.fb_gray_selector_loop\[0\]\.t_buf\.in
*859 w3\.fb_block_I\.gs_f\.fb_gray_selector_loop\[1\]\.eff3\.d1
*860 w3\.fb_block_I\.gs_f\.fb_gray_selector_loop\[1\]\.eff3\.d2
*861 w3\.fb_block_I\.gs_f\.fb_gray_selector_loop\[1\]\.eff3\.dff\.q
*862 w3\.fb_block_I\.gs_f\.fb_gray_selector_loop\[1\]\.eff3\.dff_n\.q
*863 w3\.fb_block_I\.gs_f\.fb_gray_selector_loop\[1\]\.t_buf\.ctrlb
*864 w3\.fb_block_I\.gs_f\.fb_gray_selector_loop\[1\]\.t_buf\.in
*865 w3\.fb_block_I\.gs_f\.fb_gray_selector_loop\[2\]\.eff3\.d1
*866 w3\.fb_block_I\.gs_f\.fb_gray_selector_loop\[2\]\.eff3\.d2
*867 w3\.fb_block_I\.gs_f\.fb_gray_selector_loop\[2\]\.eff3\.dff\.q
*868 w3\.fb_block_I\.gs_f\.fb_gray_selector_loop\[2\]\.eff3\.dff_n\.q
*869 w3\.fb_block_I\.gs_f\.fb_gray_selector_loop\[2\]\.t_buf\.ctrlb
*870 w3\.fb_block_I\.gs_f\.fb_gray_selector_loop\[2\]\.t_buf\.in
*871 w3\.fb_block_I\.gs_f\.fb_gray_selector_loop\[3\]\.eff3\.d1
*872 w3\.fb_block_I\.gs_f\.fb_gray_selector_loop\[3\]\.eff3\.d2
*873 w3\.fb_block_I\.gs_f\.fb_gray_selector_loop\[3\]\.eff3\.dff\.q
*874 w3\.fb_block_I\.gs_f\.fb_gray_selector_loop\[3\]\.eff3\.dff_n\.q
*875 w3\.fb_block_I\.gs_f\.fb_gray_selector_loop\[3\]\.t_buf\.ctrlb
*876 w3\.fb_block_I\.gs_f\.fb_gray_selector_loop\[3\]\.t_buf\.in
*877 w3\.fb_block_I\.gs_f\.fb_gray_selector_loop\[4\]\.eff3\.d1
*878 w3\.fb_block_I\.gs_f\.fb_gray_selector_loop\[4\]\.eff3\.d2
*879 w3\.fb_block_I\.gs_f\.fb_gray_selector_loop\[4\]\.eff3\.dff\.q
*880 w3\.fb_block_I\.gs_f\.fb_gray_selector_loop\[4\]\.eff3\.dff_n\.q
*881 w3\.fb_block_I\.gs_f\.fb_gray_selector_loop\[4\]\.t_buf\.ctrlb
*882 w3\.fb_block_I\.gs_f\.fb_gray_selector_loop\[4\]\.t_buf\.in
*883 w3\.fb_block_I\.gs_f\.fb_gray_selector_loop\[5\]\.eff3\.d1
*884 w3\.fb_block_I\.gs_f\.fb_gray_selector_loop\[5\]\.eff3\.d2
*885 w3\.fb_block_I\.gs_f\.fb_gray_selector_loop\[5\]\.eff3\.dff\.q
*886 w3\.fb_block_I\.gs_f\.fb_gray_selector_loop\[5\]\.eff3\.dff_n\.q
*887 w3\.fb_block_I\.gs_f\.fb_gray_selector_loop\[5\]\.t_buf\.ctrlb
*888 w3\.fb_block_I\.gs_f\.fb_gray_selector_loop\[5\]\.t_buf\.in
*889 w3\.fb_block_I\.gs_f\.fb_gray_selector_loop\[6\]\.eff3\.d1
*890 w3\.fb_block_I\.gs_f\.fb_gray_selector_loop\[6\]\.eff3\.d2
*891 w3\.fb_block_I\.gs_f\.fb_gray_selector_loop\[6\]\.eff3\.dff\.q
*892 w3\.fb_block_I\.gs_f\.fb_gray_selector_loop\[6\]\.eff3\.dff_n\.q
*893 w3\.fb_block_I\.gs_f\.fb_gray_selector_loop\[6\]\.t_buf\.ctrlb
*894 w3\.fb_block_I\.gs_f\.fb_gray_selector_loop\[6\]\.t_buf\.in
*895 w3\.fb_block_I\.gs_f\.fb_gray_selector_loop\[7\]\.eff3\.d1
*896 w3\.fb_block_I\.gs_f\.fb_gray_selector_loop\[7\]\.eff3\.d2
*897 w3\.fb_block_I\.gs_f\.fb_gray_selector_loop\[7\]\.eff3\.dff\.q
*898 w3\.fb_block_I\.gs_f\.fb_gray_selector_loop\[7\]\.eff3\.dff_n\.q
*899 w3\.fb_block_I\.gs_f\.fb_gray_selector_loop\[7\]\.t_buf\.ctrlb
*900 w3\.fb_block_I\.gs_f\.fb_gray_selector_loop\[7\]\.t_buf\.in
*901 w3\.fb_block_I\.gs_f\.fb_gray_selector_loop\[8\]\.eff3\.d1
*902 w3\.fb_block_I\.gs_f\.fb_gray_selector_loop\[8\]\.eff3\.d2
*903 w3\.fb_block_I\.gs_f\.fb_gray_selector_loop\[8\]\.eff3\.dff\.q
*904 w3\.fb_block_I\.gs_f\.fb_gray_selector_loop\[8\]\.eff3\.dff_n\.q
*905 w3\.fb_block_I\.gs_f\.fb_gray_selector_loop\[8\]\.t_buf\.ctrlb
*906 w3\.fb_block_I\.gs_f\.fb_gray_selector_loop\[8\]\.t_buf\.in
*907 w3\.fb_block_I\.gs_f\.fb_gray_selector_loop\[9\]\.eff3\.clk
*908 w3\.fb_block_I\.gs_f\.fb_gray_selector_loop\[9\]\.eff3\.d1
*909 w3\.fb_block_I\.gs_f\.fb_gray_selector_loop\[9\]\.eff3\.d2
*910 w3\.fb_block_I\.gs_f\.fb_gray_selector_loop\[9\]\.eff3\.dff\.q
*911 w3\.fb_block_I\.gs_f\.fb_gray_selector_loop\[9\]\.eff3\.dff_n\.q
*912 w3\.fb_block_I\.gs_f\.fb_gray_selector_loop\[9\]\.t_buf\.ctrlb
*913 w3\.fb_block_I\.gs_f\.fb_gray_selector_loop\[9\]\.t_buf\.in
*914 w3\.fb_block_I\.ud_c\.bin_counter\[0\]\.cc\.q
*915 w3\.fb_block_I\.ud_c\.bin_counter\[0\]\.cc\.tff1\.d
*916 w3\.fb_block_I\.ud_c\.bin_counter\[10\]\.cc\.tff1\.d
*917 w3\.fb_block_I\.ud_c\.bin_counter\[11\]\.cc\.tff1\.d
*918 w3\.fb_block_I\.ud_c\.bin_counter\[12\]\.cc\.tff1\.d
*919 w3\.fb_block_I\.ud_c\.bin_counter\[13\]\.cc\.tff1\.d
*920 w3\.fb_block_I\.ud_c\.bin_counter\[1\]\.cc\.q
*921 w3\.fb_block_I\.ud_c\.bin_counter\[1\]\.cc\.tff1\.d
*922 w3\.fb_block_I\.ud_c\.bin_counter\[2\]\.cc\.q
*923 w3\.fb_block_I\.ud_c\.bin_counter\[2\]\.cc\.tff1\.d
*924 w3\.fb_block_I\.ud_c\.bin_counter\[3\]\.cc\.q
*925 w3\.fb_block_I\.ud_c\.bin_counter\[3\]\.cc\.tff1\.d
*926 w3\.fb_block_I\.ud_c\.bin_counter\[4\]\.cc\.q
*927 w3\.fb_block_I\.ud_c\.bin_counter\[4\]\.cc\.tff1\.d
*928 w3\.fb_block_I\.ud_c\.bin_counter\[5\]\.cc\.tff1\.d
*929 w3\.fb_block_I\.ud_c\.bin_counter\[6\]\.cc\.tff1\.d
*930 w3\.fb_block_I\.ud_c\.bin_counter\[7\]\.cc\.tff1\.d
*931 w3\.fb_block_I\.ud_c\.bin_counter\[8\]\.cc\.tff1\.d
*932 w3\.fb_block_I\.ud_c\.bin_counter\[9\]\.cc\.tff1\.d
*933 w3\.fb_block_I\.ud_c\.cc1\.q
*934 w3\.fb_block_I\.ud_c\.cc1\.tff1\.d
*935 w3\.fb_block_I\.ud_c\.tff_end\.d
*936 w3\.fb_block_Q\.gs_f\.fb_gray_selector_loop\[0\]\.dl\.d
*937 w3\.fb_block_Q\.gs_f\.fb_gray_selector_loop\[0\]\.eff3\.d1
*938 w3\.fb_block_Q\.gs_f\.fb_gray_selector_loop\[0\]\.eff3\.d2
*939 w3\.fb_block_Q\.gs_f\.fb_gray_selector_loop\[0\]\.eff3\.dff\.q
*940 w3\.fb_block_Q\.gs_f\.fb_gray_selector_loop\[0\]\.eff3\.dff_n\.q
*941 w3\.fb_block_Q\.gs_f\.fb_gray_selector_loop\[0\]\.t_buf\.ctrlb
*942 w3\.fb_block_Q\.gs_f\.fb_gray_selector_loop\[0\]\.t_buf\.in
*943 w3\.fb_block_Q\.gs_f\.fb_gray_selector_loop\[1\]\.eff3\.d1
*944 w3\.fb_block_Q\.gs_f\.fb_gray_selector_loop\[1\]\.eff3\.d2
*945 w3\.fb_block_Q\.gs_f\.fb_gray_selector_loop\[1\]\.eff3\.dff\.q
*946 w3\.fb_block_Q\.gs_f\.fb_gray_selector_loop\[1\]\.eff3\.dff_n\.q
*947 w3\.fb_block_Q\.gs_f\.fb_gray_selector_loop\[1\]\.t_buf\.ctrlb
*948 w3\.fb_block_Q\.gs_f\.fb_gray_selector_loop\[1\]\.t_buf\.in
*949 w3\.fb_block_Q\.gs_f\.fb_gray_selector_loop\[2\]\.eff3\.d1
*950 w3\.fb_block_Q\.gs_f\.fb_gray_selector_loop\[2\]\.eff3\.d2
*951 w3\.fb_block_Q\.gs_f\.fb_gray_selector_loop\[2\]\.eff3\.dff\.q
*952 w3\.fb_block_Q\.gs_f\.fb_gray_selector_loop\[2\]\.eff3\.dff_n\.q
*953 w3\.fb_block_Q\.gs_f\.fb_gray_selector_loop\[2\]\.t_buf\.ctrlb
*954 w3\.fb_block_Q\.gs_f\.fb_gray_selector_loop\[2\]\.t_buf\.in
*955 w3\.fb_block_Q\.gs_f\.fb_gray_selector_loop\[3\]\.eff3\.d1
*956 w3\.fb_block_Q\.gs_f\.fb_gray_selector_loop\[3\]\.eff3\.d2
*957 w3\.fb_block_Q\.gs_f\.fb_gray_selector_loop\[3\]\.eff3\.dff\.q
*958 w3\.fb_block_Q\.gs_f\.fb_gray_selector_loop\[3\]\.eff3\.dff_n\.q
*959 w3\.fb_block_Q\.gs_f\.fb_gray_selector_loop\[3\]\.t_buf\.ctrlb
*960 w3\.fb_block_Q\.gs_f\.fb_gray_selector_loop\[3\]\.t_buf\.in
*961 w3\.fb_block_Q\.gs_f\.fb_gray_selector_loop\[4\]\.eff3\.d1
*962 w3\.fb_block_Q\.gs_f\.fb_gray_selector_loop\[4\]\.eff3\.d2
*963 w3\.fb_block_Q\.gs_f\.fb_gray_selector_loop\[4\]\.eff3\.dff\.q
*964 w3\.fb_block_Q\.gs_f\.fb_gray_selector_loop\[4\]\.eff3\.dff_n\.q
*965 w3\.fb_block_Q\.gs_f\.fb_gray_selector_loop\[4\]\.t_buf\.ctrlb
*966 w3\.fb_block_Q\.gs_f\.fb_gray_selector_loop\[4\]\.t_buf\.in
*967 w3\.fb_block_Q\.gs_f\.fb_gray_selector_loop\[5\]\.eff3\.d1
*968 w3\.fb_block_Q\.gs_f\.fb_gray_selector_loop\[5\]\.eff3\.d2
*969 w3\.fb_block_Q\.gs_f\.fb_gray_selector_loop\[5\]\.eff3\.dff\.q
*970 w3\.fb_block_Q\.gs_f\.fb_gray_selector_loop\[5\]\.eff3\.dff_n\.q
*971 w3\.fb_block_Q\.gs_f\.fb_gray_selector_loop\[5\]\.t_buf\.ctrlb
*972 w3\.fb_block_Q\.gs_f\.fb_gray_selector_loop\[5\]\.t_buf\.in
*973 w3\.fb_block_Q\.gs_f\.fb_gray_selector_loop\[6\]\.eff3\.d1
*974 w3\.fb_block_Q\.gs_f\.fb_gray_selector_loop\[6\]\.eff3\.d2
*975 w3\.fb_block_Q\.gs_f\.fb_gray_selector_loop\[6\]\.eff3\.dff\.q
*976 w3\.fb_block_Q\.gs_f\.fb_gray_selector_loop\[6\]\.eff3\.dff_n\.q
*977 w3\.fb_block_Q\.gs_f\.fb_gray_selector_loop\[6\]\.t_buf\.ctrlb
*978 w3\.fb_block_Q\.gs_f\.fb_gray_selector_loop\[6\]\.t_buf\.in
*979 w3\.fb_block_Q\.gs_f\.fb_gray_selector_loop\[7\]\.eff3\.d1
*980 w3\.fb_block_Q\.gs_f\.fb_gray_selector_loop\[7\]\.eff3\.d2
*981 w3\.fb_block_Q\.gs_f\.fb_gray_selector_loop\[7\]\.eff3\.dff\.q
*982 w3\.fb_block_Q\.gs_f\.fb_gray_selector_loop\[7\]\.eff3\.dff_n\.q
*983 w3\.fb_block_Q\.gs_f\.fb_gray_selector_loop\[7\]\.t_buf\.ctrlb
*984 w3\.fb_block_Q\.gs_f\.fb_gray_selector_loop\[7\]\.t_buf\.in
*985 w3\.fb_block_Q\.gs_f\.fb_gray_selector_loop\[8\]\.eff3\.d1
*986 w3\.fb_block_Q\.gs_f\.fb_gray_selector_loop\[8\]\.eff3\.d2
*987 w3\.fb_block_Q\.gs_f\.fb_gray_selector_loop\[8\]\.eff3\.dff\.q
*988 w3\.fb_block_Q\.gs_f\.fb_gray_selector_loop\[8\]\.eff3\.dff_n\.q
*989 w3\.fb_block_Q\.gs_f\.fb_gray_selector_loop\[8\]\.t_buf\.ctrlb
*990 w3\.fb_block_Q\.gs_f\.fb_gray_selector_loop\[8\]\.t_buf\.in
*991 w3\.fb_block_Q\.gs_f\.fb_gray_selector_loop\[9\]\.eff3\.d1
*992 w3\.fb_block_Q\.gs_f\.fb_gray_selector_loop\[9\]\.eff3\.d2