*SPEF "ieee 1481-1999"
*DESIGN "user_project_wrapper"
*DATE "11:11:11 Fri 11 11, 1111"
*VENDOR "OpenRCX"
*PROGRAM "Parallel Extraction"
*VERSION "1.0"
*DESIGN_FLOW "NAME_SCOPE LOCAL" "PIN_CAP NONE"
*DIVIDER /
*DELIMITER :
*BUS_DELIMITER []
*T_UNIT 1 NS
*C_UNIT 1 PF
*R_UNIT 1 OHM
*L_UNIT 1 HENRY

*NAME_MAP
*1 analog_io[0]
*2 analog_io[10]
*3 analog_io[11]
*4 analog_io[12]
*5 analog_io[13]
*6 analog_io[14]
*7 analog_io[15]
*8 analog_io[16]
*9 analog_io[17]
*10 analog_io[18]
*11 analog_io[19]
*12 analog_io[1]
*13 analog_io[20]
*14 analog_io[21]
*15 analog_io[22]
*16 analog_io[23]
*17 analog_io[24]
*18 analog_io[25]
*19 analog_io[26]
*20 analog_io[27]
*21 analog_io[28]
*22 analog_io[2]
*23 analog_io[3]
*24 analog_io[4]
*25 analog_io[5]
*26 analog_io[6]
*27 analog_io[7]
*28 analog_io[8]
*29 analog_io[9]
*30 io_in[0]
*31 io_in[10]
*32 io_in[11]
*33 io_in[12]
*34 io_in[13]
*35 io_in[14]
*36 io_in[15]
*37 io_in[16]
*38 io_in[17]
*39 io_in[18]
*40 io_in[19]
*41 io_in[1]
*42 io_in[20]
*43 io_in[21]
*44 io_in[22]
*45 io_in[23]
*46 io_in[24]
*47 io_in[25]
*48 io_in[26]
*49 io_in[27]
*50 io_in[28]
*51 io_in[29]
*52 io_in[2]
*53 io_in[30]
*54 io_in[31]
*55 io_in[32]
*56 io_in[33]
*57 io_in[34]
*58 io_in[35]
*59 io_in[36]
*60 io_in[37]
*61 io_in[3]
*62 io_in[4]
*63 io_in[5]
*64 io_in[6]
*65 io_in[7]
*66 io_in[8]
*67 io_in[9]
*68 io_oeb[0]
*69 io_oeb[10]
*70 io_oeb[11]
*71 io_oeb[12]
*72 io_oeb[13]
*73 io_oeb[14]
*74 io_oeb[15]
*75 io_oeb[16]
*76 io_oeb[17]
*77 io_oeb[18]
*78 io_oeb[19]
*79 io_oeb[1]
*80 io_oeb[20]
*81 io_oeb[21]
*82 io_oeb[22]
*83 io_oeb[23]
*84 io_oeb[24]
*85 io_oeb[25]
*86 io_oeb[26]
*87 io_oeb[27]
*88 io_oeb[28]
*89 io_oeb[29]
*90 io_oeb[2]
*91 io_oeb[30]
*92 io_oeb[31]
*93 io_oeb[32]
*94 io_oeb[33]
*95 io_oeb[34]
*96 io_oeb[35]
*97 io_oeb[36]
*98 io_oeb[37]
*99 io_oeb[3]
*100 io_oeb[4]
*101 io_oeb[5]
*102 io_oeb[6]
*103 io_oeb[7]
*104 io_oeb[8]
*105 io_oeb[9]
*106 io_out[0]
*107 io_out[10]
*108 io_out[11]
*109 io_out[12]
*110 io_out[13]
*111 io_out[14]
*112 io_out[15]
*113 io_out[16]
*114 io_out[17]
*115 io_out[18]
*116 io_out[19]
*117 io_out[1]
*118 io_out[20]
*119 io_out[21]
*120 io_out[22]
*121 io_out[23]
*122 io_out[24]
*123 io_out[25]
*124 io_out[26]
*125 io_out[27]
*126 io_out[28]
*127 io_out[29]
*128 io_out[2]
*129 io_out[30]
*130 io_out[31]
*131 io_out[32]
*132 io_out[33]
*133 io_out[34]
*134 io_out[35]
*135 io_out[36]
*136 io_out[37]
*137 io_out[3]
*138 io_out[4]
*139 io_out[5]
*140 io_out[6]
*141 io_out[7]
*142 io_out[8]
*143 io_out[9]
*144 la_data_in[0]
*145 la_data_in[100]
*146 la_data_in[101]
*147 la_data_in[102]
*148 la_data_in[103]
*149 la_data_in[104]
*150 la_data_in[105]
*151 la_data_in[106]
*152 la_data_in[107]
*153 la_data_in[108]
*154 la_data_in[109]
*155 la_data_in[10]
*156 la_data_in[110]
*157 la_data_in[111]
*158 la_data_in[112]
*159 la_data_in[113]
*160 la_data_in[114]
*161 la_data_in[115]
*162 la_data_in[116]
*163 la_data_in[117]
*164 la_data_in[118]
*165 la_data_in[119]
*166 la_data_in[11]
*167 la_data_in[120]
*168 la_data_in[121]
*169 la_data_in[122]
*170 la_data_in[123]
*171 la_data_in[124]
*172 la_data_in[125]
*173 la_data_in[126]
*174 la_data_in[127]
*175 la_data_in[12]
*176 la_data_in[13]
*177 la_data_in[14]
*178 la_data_in[15]
*179 la_data_in[16]
*180 la_data_in[17]
*181 la_data_in[18]
*182 la_data_in[19]
*183 la_data_in[1]
*184 la_data_in[20]
*185 la_data_in[21]
*186 la_data_in[22]
*187 la_data_in[23]
*188 la_data_in[24]
*189 la_data_in[25]
*190 la_data_in[26]
*191 la_data_in[27]
*192 la_data_in[28]
*193 la_data_in[29]
*194 la_data_in[2]
*195 la_data_in[30]
*196 la_data_in[31]
*197 la_data_in[32]
*198 la_data_in[33]
*199 la_data_in[34]
*200 la_data_in[35]
*201 la_data_in[36]
*202 la_data_in[37]
*203 la_data_in[38]
*204 la_data_in[39]
*205 la_data_in[3]
*206 la_data_in[40]
*207 la_data_in[41]
*208 la_data_in[42]
*209 la_data_in[43]
*210 la_data_in[44]
*211 la_data_in[45]
*212 la_data_in[46]
*213 la_data_in[47]
*214 la_data_in[48]
*215 la_data_in[49]
*216 la_data_in[4]
*217 la_data_in[50]
*218 la_data_in[51]
*219 la_data_in[52]
*220 la_data_in[53]
*221 la_data_in[54]
*222 la_data_in[55]
*223 la_data_in[56]
*224 la_data_in[57]
*225 la_data_in[58]
*226 la_data_in[59]
*227 la_data_in[5]
*228 la_data_in[60]
*229 la_data_in[61]
*230 la_data_in[62]
*231 la_data_in[63]
*232 la_data_in[64]
*233 la_data_in[65]
*234 la_data_in[66]
*235 la_data_in[67]
*236 la_data_in[68]
*237 la_data_in[69]
*238 la_data_in[6]
*239 la_data_in[70]
*240 la_data_in[71]
*241 la_data_in[72]
*242 la_data_in[73]
*243 la_data_in[74]
*244 la_data_in[75]
*245 la_data_in[76]
*246 la_data_in[77]
*247 la_data_in[78]
*248 la_data_in[79]
*249 la_data_in[7]
*250 la_data_in[80]
*251 la_data_in[81]
*252 la_data_in[82]
*253 la_data_in[83]
*254 la_data_in[84]
*255 la_data_in[85]
*256 la_data_in[86]
*257 la_data_in[87]
*258 la_data_in[88]
*259 la_data_in[89]
*260 la_data_in[8]
*261 la_data_in[90]
*262 la_data_in[91]
*263 la_data_in[92]
*264 la_data_in[93]
*265 la_data_in[94]
*266 la_data_in[95]
*267 la_data_in[96]
*268 la_data_in[97]
*269 la_data_in[98]
*270 la_data_in[99]
*271 la_data_in[9]
*272 la_data_out[0]
*273 la_data_out[100]
*274 la_data_out[101]
*275 la_data_out[102]
*276 la_data_out[103]
*277 la_data_out[104]
*278 la_data_out[105]
*279 la_data_out[106]
*280 la_data_out[107]
*281 la_data_out[108]
*282 la_data_out[109]
*283 la_data_out[10]
*284 la_data_out[110]
*285 la_data_out[111]
*286 la_data_out[112]
*287 la_data_out[113]
*288 la_data_out[114]
*289 la_data_out[115]
*290 la_data_out[116]
*291 la_data_out[117]
*292 la_data_out[118]
*293 la_data_out[119]
*294 la_data_out[11]
*295 la_data_out[120]
*296 la_data_out[121]
*297 la_data_out[122]
*298 la_data_out[123]
*299 la_data_out[124]
*300 la_data_out[125]
*301 la_data_out[126]
*302 la_data_out[127]
*303 la_data_out[12]
*304 la_data_out[13]
*305 la_data_out[14]
*306 la_data_out[15]
*307 la_data_out[16]
*308 la_data_out[17]
*309 la_data_out[18]
*310 la_data_out[19]
*311 la_data_out[1]
*312 la_data_out[20]
*313 la_data_out[21]
*314 la_data_out[22]
*315 la_data_out[23]
*316 la_data_out[24]
*317 la_data_out[25]
*318 la_data_out[26]
*319 la_data_out[27]
*320 la_data_out[28]
*321 la_data_out[29]
*322 la_data_out[2]
*323 la_data_out[30]
*324 la_data_out[31]
*325 la_data_out[32]
*326 la_data_out[33]
*327 la_data_out[34]
*328 la_data_out[35]
*329 la_data_out[36]
*330 la_data_out[37]
*331 la_data_out[38]
*332 la_data_out[39]
*333 la_data_out[3]
*334 la_data_out[40]
*335 la_data_out[41]
*336 la_data_out[42]
*337 la_data_out[43]
*338 la_data_out[44]
*339 la_data_out[45]
*340 la_data_out[46]
*341 la_data_out[47]
*342 la_data_out[48]
*343 la_data_out[49]
*344 la_data_out[4]
*345 la_data_out[50]
*346 la_data_out[51]
*347 la_data_out[52]
*348 la_data_out[53]
*349 la_data_out[54]
*350 la_data_out[55]
*351 la_data_out[56]
*352 la_data_out[57]
*353 la_data_out[58]
*354 la_data_out[59]
*355 la_data_out[5]
*356 la_data_out[60]
*357 la_data_out[61]
*358 la_data_out[62]
*359 la_data_out[63]
*360 la_data_out[64]
*361 la_data_out[65]
*362 la_data_out[66]
*363 la_data_out[67]
*364 la_data_out[68]
*365 la_data_out[69]
*366 la_data_out[6]
*367 la_data_out[70]
*368 la_data_out[71]
*369 la_data_out[72]
*370 la_data_out[73]
*371 la_data_out[74]
*372 la_data_out[75]
*373 la_data_out[76]
*374 la_data_out[77]
*375 la_data_out[78]
*376 la_data_out[79]
*377 la_data_out[7]
*378 la_data_out[80]
*379 la_data_out[81]
*380 la_data_out[82]
*381 la_data_out[83]
*382 la_data_out[84]
*383 la_data_out[85]
*384 la_data_out[86]
*385 la_data_out[87]
*386 la_data_out[88]
*387 la_data_out[89]
*388 la_data_out[8]
*389 la_data_out[90]
*390 la_data_out[91]
*391 la_data_out[92]
*392 la_data_out[93]
*393 la_data_out[94]
*394 la_data_out[95]
*395 la_data_out[96]
*396 la_data_out[97]
*397 la_data_out[98]
*398 la_data_out[99]
*399 la_data_out[9]
*400 la_oenb[0]
*401 la_oenb[100]
*402 la_oenb[101]
*403 la_oenb[102]
*404 la_oenb[103]
*405 la_oenb[104]
*406 la_oenb[105]
*407 la_oenb[106]
*408 la_oenb[107]
*409 la_oenb[108]
*410 la_oenb[109]
*411 la_oenb[10]
*412 la_oenb[110]
*413 la_oenb[111]
*414 la_oenb[112]
*415 la_oenb[113]
*416 la_oenb[114]
*417 la_oenb[115]
*418 la_oenb[116]
*419 la_oenb[117]
*420 la_oenb[118]
*421 la_oenb[119]
*422 la_oenb[11]
*423 la_oenb[120]
*424 la_oenb[121]
*425 la_oenb[122]
*426 la_oenb[123]
*427 la_oenb[124]
*428 la_oenb[125]
*429 la_oenb[126]
*430 la_oenb[127]
*431 la_oenb[12]
*432 la_oenb[13]
*433 la_oenb[14]
*434 la_oenb[15]
*435 la_oenb[16]
*436 la_oenb[17]
*437 la_oenb[18]
*438 la_oenb[19]
*439 la_oenb[1]
*440 la_oenb[20]
*441 la_oenb[21]
*442 la_oenb[22]
*443 la_oenb[23]
*444 la_oenb[24]
*445 la_oenb[25]
*446 la_oenb[26]
*447 la_oenb[27]
*448 la_oenb[28]
*449 la_oenb[29]
*450 la_oenb[2]
*451 la_oenb[30]
*452 la_oenb[31]
*453 la_oenb[32]
*454 la_oenb[33]
*455 la_oenb[34]
*456 la_oenb[35]
*457 la_oenb[36]
*458 la_oenb[37]
*459 la_oenb[38]
*460 la_oenb[39]
*461 la_oenb[3]
*462 la_oenb[40]
*463 la_oenb[41]
*464 la_oenb[42]
*465 la_oenb[43]
*466 la_oenb[44]
*467 la_oenb[45]
*468 la_oenb[46]
*469 la_oenb[47]
*470 la_oenb[48]
*471 la_oenb[49]
*472 la_oenb[4]
*473 la_oenb[50]
*474 la_oenb[51]
*475 la_oenb[52]
*476 la_oenb[53]
*477 la_oenb[54]
*478 la_oenb[55]
*479 la_oenb[56]
*480 la_oenb[57]
*481 la_oenb[58]
*482 la_oenb[59]
*483 la_oenb[5]
*484 la_oenb[60]
*485 la_oenb[61]
*486 la_oenb[62]
*487 la_oenb[63]
*488 la_oenb[64]
*489 la_oenb[65]
*490 la_oenb[66]
*491 la_oenb[67]
*492 la_oenb[68]
*493 la_oenb[69]
*494 la_oenb[6]
*495 la_oenb[70]
*496 la_oenb[71]
*497 la_oenb[72]
*498 la_oenb[73]
*499 la_oenb[74]
*500 la_oenb[75]
*501 la_oenb[76]
*502 la_oenb[77]
*503 la_oenb[78]
*504 la_oenb[79]
*505 la_oenb[7]
*506 la_oenb[80]
*507 la_oenb[81]
*508 la_oenb[82]
*509 la_oenb[83]
*510 la_oenb[84]
*511 la_oenb[85]
*512 la_oenb[86]
*513 la_oenb[87]
*514 la_oenb[88]
*515 la_oenb[89]
*516 la_oenb[8]
*517 la_oenb[90]
*518 la_oenb[91]
*519 la_oenb[92]
*520 la_oenb[93]
*521 la_oenb[94]
*522 la_oenb[95]
*523 la_oenb[96]
*524 la_oenb[97]
*525 la_oenb[98]
*526 la_oenb[99]
*527 la_oenb[9]
*528 user_clock2
*529 user_irq[0]
*530 user_irq[1]
*531 user_irq[2]
*540 wb_clk_i
*541 wb_rst_i
*542 wbs_ack_o
*543 wbs_adr_i[0]
*544 wbs_adr_i[10]
*545 wbs_adr_i[11]
*546 wbs_adr_i[12]
*547 wbs_adr_i[13]
*548 wbs_adr_i[14]
*549 wbs_adr_i[15]
*550 wbs_adr_i[16]
*551 wbs_adr_i[17]
*552 wbs_adr_i[18]
*553 wbs_adr_i[19]
*554 wbs_adr_i[1]
*555 wbs_adr_i[20]
*556 wbs_adr_i[21]
*557 wbs_adr_i[22]
*558 wbs_adr_i[23]
*559 wbs_adr_i[24]
*560 wbs_adr_i[25]
*561 wbs_adr_i[26]
*562 wbs_adr_i[27]
*563 wbs_adr_i[28]
*564 wbs_adr_i[29]
*565 wbs_adr_i[2]
*566 wbs_adr_i[30]
*567 wbs_adr_i[31]
*568 wbs_adr_i[3]
*569 wbs_adr_i[4]
*570 wbs_adr_i[5]
*571 wbs_adr_i[6]
*572 wbs_adr_i[7]
*573 wbs_adr_i[8]
*574 wbs_adr_i[9]
*575 wbs_cyc_i
*576 wbs_dat_i[0]
*577 wbs_dat_i[10]
*578 wbs_dat_i[11]
*579 wbs_dat_i[12]
*580 wbs_dat_i[13]
*581 wbs_dat_i[14]
*582 wbs_dat_i[15]
*583 wbs_dat_i[16]
*584 wbs_dat_i[17]
*585 wbs_dat_i[18]
*586 wbs_dat_i[19]
*587 wbs_dat_i[1]
*588 wbs_dat_i[20]
*589 wbs_dat_i[21]
*590 wbs_dat_i[22]
*591 wbs_dat_i[23]
*592 wbs_dat_i[24]
*593 wbs_dat_i[25]
*594 wbs_dat_i[26]
*595 wbs_dat_i[27]
*596 wbs_dat_i[28]
*597 wbs_dat_i[29]
*598 wbs_dat_i[2]
*599 wbs_dat_i[30]
*600 wbs_dat_i[31]
*601 wbs_dat_i[3]
*602 wbs_dat_i[4]
*603 wbs_dat_i[5]
*604 wbs_dat_i[6]
*605 wbs_dat_i[7]
*606 wbs_dat_i[8]
*607 wbs_dat_i[9]
*608 wbs_dat_o[0]
*609 wbs_dat_o[10]
*610 wbs_dat_o[11]
*611 wbs_dat_o[12]
*612 wbs_dat_o[13]
*613 wbs_dat_o[14]
*614 wbs_dat_o[15]
*615 wbs_dat_o[16]
*616 wbs_dat_o[17]
*617 wbs_dat_o[18]
*618 wbs_dat_o[19]
*619 wbs_dat_o[1]
*620 wbs_dat_o[20]
*621 wbs_dat_o[21]
*622 wbs_dat_o[22]
*623 wbs_dat_o[23]
*624 wbs_dat_o[24]
*625 wbs_dat_o[25]
*626 wbs_dat_o[26]
*627 wbs_dat_o[27]
*628 wbs_dat_o[28]
*629 wbs_dat_o[29]
*630 wbs_dat_o[2]
*631 wbs_dat_o[30]
*632 wbs_dat_o[31]
*633 wbs_dat_o[3]
*634 wbs_dat_o[4]
*635 wbs_dat_o[5]
*636 wbs_dat_o[6]
*637 wbs_dat_o[7]
*638 wbs_dat_o[8]
*639 wbs_dat_o[9]
*640 wbs_sel_i[0]
*641 wbs_sel_i[1]
*642 wbs_sel_i[2]
*643 wbs_sel_i[3]
*644 wbs_stb_i
*645 wbs_we_i
*646 PHY_0
*647 PHY_1
*648 PHY_10
*649 PHY_100
*650 PHY_1000
*651 PHY_1001
*652 PHY_1002
*653 PHY_1003
*654 PHY_1004
*655 PHY_1005
*656 PHY_1006
*657 PHY_1007
*658 PHY_1008
*659 PHY_1009
*660 PHY_101
*661 PHY_1010
*662 PHY_1011
*663 PHY_1012
*664 PHY_1013
*665 PHY_1014
*666 PHY_1015
*667 PHY_1016
*668 PHY_1017
*669 PHY_1018
*670 PHY_1019
*671 PHY_102
*672 PHY_1020
*673 PHY_1021
*674 PHY_1022
*675 PHY_1023
*676 PHY_1024
*677 PHY_1025
*678 PHY_1026
*679 PHY_1027
*680 PHY_1028
*681 PHY_1029
*682 PHY_103
*683 PHY_1030
*684 PHY_1031
*685 PHY_1032
*686 PHY_1033
*687 PHY_1034
*688 PHY_1035
*689 PHY_1036
*690 PHY_1037
*691 PHY_1038
*692 PHY_1039
*693 PHY_104
*694 PHY_1040
*695 PHY_1041
*696 PHY_1042
*697 PHY_1043
*698 PHY_1044
*699 PHY_1045
*700 PHY_1046
*701 PHY_1047
*702 PHY_1048
*703 PHY_1049
*704 PHY_105
*705 PHY_1050
*706 PHY_1051
*707 PHY_1052
*708 PHY_1053
*709 PHY_1054
*710 PHY_1055
*711 PHY_1056
*712 PHY_1057
*713 PHY_1058
*714 PHY_1059
*715 PHY_106
*716 PHY_1060
*717 PHY_1061
*718 PHY_1062
*719 PHY_1063
*720 PHY_1064
*721 PHY_1065
*722 PHY_1066
*723 PHY_1067
*724 PHY_1068
*725 PHY_1069
*726 PHY_107
*727 PHY_1070
*728 PHY_1071
*729 PHY_1072
*730 PHY_1073
*731 PHY_1074
*732 PHY_1075
*733 PHY_1076
*734 PHY_1077
*735 PHY_1078
*736 PHY_1079
*737 PHY_108
*738 PHY_1080
*739 PHY_1081
*740 PHY_1082
*741 PHY_1083
*742 PHY_1084
*743 PHY_1085
*744 PHY_1086
*745 PHY_1087
*746 PHY_1088
*747 PHY_1089
*748 PHY_109
*749 PHY_1090
*750 PHY_1091
*751 PHY_1092
*752 PHY_1093
*753 PHY_1094
*754 PHY_1095
*755 PHY_1096
*756 PHY_1097
*757 PHY_1098
*758 PHY_1099
*759 PHY_11
*760 PHY_110
*761 PHY_1100
*762 PHY_1101
*763 PHY_1102
*764 PHY_1103
*765 PHY_1104
*766 PHY_1105
*767 PHY_1106
*768 PHY_1107
*769 PHY_1108
*770 PHY_1109
*771 PHY_111
*772 PHY_1110
*773 PHY_1111
*774 PHY_1112
*775 PHY_1113
*776 PHY_1114
*777 PHY_1115
*778 PHY_1116
*779 PHY_1117
*780 PHY_1118
*781 PHY_1119
*782 PHY_112
*783 PHY_1120
*784 PHY_1121
*785 PHY_1122
*786 PHY_1123
*787 PHY_1124
*788 PHY_1125
*789 PHY_1126
*790 PHY_1127
*791 PHY_1128
*792 PHY_1129
*793 PHY_113
*794 PHY_1130
*795 PHY_1131
*796 PHY_1132
*797 PHY_1133
*798 PHY_1134
*799 PHY_1135
*800 PHY_1136
*801 PHY_1137
*802 PHY_1138
*803 PHY_1139
*804 PHY_114
*805 PHY_1140
*806 PHY_1141
*807 PHY_1142
*808 PHY_1143
*809 PHY_1144
*810 PHY_1145
*811 PHY_1146
*812 PHY_1147
*813 PHY_1148
*814 PHY_1149
*815 PHY_115
*816 PHY_1150
*817 PHY_1151
*818 PHY_1152
*819 PHY_1153
*820 PHY_1154
*821 PHY_1155
*822 PHY_1156
*823 PHY_1157
*824 PHY_1158
*825 PHY_1159
*826 PHY_116
*827 PHY_1160
*828 PHY_1161
*829 PHY_1162
*830 PHY_1163
*831 PHY_1164
*832 PHY_1165
*833 PHY_1166
*834 PHY_1167
*835 PHY_1168
*836 PHY_1169
*837 PHY_117
*838 PHY_1170
*839 PHY_1171
*840 PHY_1172
*841 PHY_1173
*842 PHY_1174
*843 PHY_1175
*844 PHY_1176
*845 PHY_1177
*846 PHY_1178
*847 PHY_1179
*848 PHY_118
*849 PHY_1180
*850 PHY_1181
*851 PHY_1182
*852 PHY_1183
*853 PHY_1184
*854 PHY_1185
*855 PHY_1186
*856 PHY_1187
*857 PHY_1188
*858 PHY_1189
*859 PHY_119
*860 PHY_1190
*861 PHY_1191
*862 PHY_1192
*863 PHY_1193
*864 PHY_1194
*865 PHY_1195
*866 PHY_1196
*867 PHY_1197
*868 PHY_1198
*869 PHY_1199
*870 PHY_12
*871 PHY_120
*872 PHY_1200
*873 PHY_1201
*874 PHY_1202
*875 PHY_1203
*876 PHY_1204
*877 PHY_1205
*878 PHY_1206
*879 PHY_1207
*880 PHY_1208
*881 PHY_1209
*882 PHY_121
*883 PHY_1210
*884 PHY_1211
*885 PHY_1212
*886 PHY_1213
*887 PHY_1214
*888 PHY_1215
*889 PHY_1216
*890 PHY_1217
*891 PHY_1218
*892 PHY_1219
*893 PHY_122
*894 PHY_1220
*895 PHY_1221
*896 PHY_1222
*897 PHY_1223
*898 PHY_1224
*899 PHY_1225
*900 PHY_1226
*901 PHY_1227
*902 PHY_1228
*903 PHY_1229
*904 PHY_123
*905 PHY_1230
*906 PHY_1231
*907 PHY_1232
*908 PHY_1233
*909 PHY_1234
*910 PHY_1235
*911 PHY_1236
*912 PHY_1237
*913 PHY_1238
*914 PHY_1239
*915 PHY_124
*916 PHY_1240
*917 PHY_1241
*918 PHY_1242
*919 PHY_1243
*920 PHY_1244
*921 PHY_1245
*922 PHY_1246
*923 PHY_1247
*924 PHY_1248
*925 PHY_1249
*926 PHY_125
*927 PHY_1250
*928 PHY_1251
*929 PHY_1252
*930 PHY_1253
*931 PHY_1254
*932 PHY_1255
*933 PHY_1256
*934 PHY_1257
*935 PHY_1258
*936 PHY_1259
*937 PHY_126
*938 PHY_1260
*939 PHY_1261
*940 PHY_1262
*941 PHY_1263
*942 PHY_1264
*943 PHY_1265
*944 PHY_1266
*945 PHY_1267
*946 PHY_1268
*947 PHY_1269
*948 PHY_127
*949 PHY_1270
*950 PHY_1271
*951 PHY_1272
*952 PHY_1273
*953 PHY_1274
*954 PHY_1275
*955 PHY_1276
*956 PHY_1277
*957 PHY_1278
*958 PHY_1279
*959 PHY_128
*960 PHY_1280
*961 PHY_1281
*962 PHY_1282
*963 PHY_1283
*964 PHY_1284
*965 PHY_1285
*966 PHY_1286
*967 PHY_1287
*968 PHY_1288
*969 PHY_1289
*970 PHY_129
*971 PHY_1290
*972 PHY_1291
*973 PHY_1292
*974 PHY_1293
*975 PHY_1294
*976 PHY_1295
*977 PHY_1296
*978 PHY_1297
*979 PHY_1298
*980 PHY_1299
*981 PHY_13
*982 PHY_130
*983 PHY_1300
*984 PHY_1301
*985 PHY_1302
*986 PHY_1303
*987 PHY_1304
*988 PHY_1305
*989 PHY_1306
*990 PHY_1307
*991 PHY_1308
*992 PHY_1309
*993 PHY_131
*994 PHY_1310
*995 PHY_1311
*996 PHY_1312
*997 PHY_1313
*998 PHY_1314
*999 PHY_1315
*1000 PHY_1316
*1001 PHY_1317
*1002 PHY_1318
*1003 PHY_1319
*1004 PHY_132
*1005 PHY_1320
*1006 PHY_1321
*1007 PHY_1322
*1008 PHY_1323
*1009 PHY_1324
*1010 PHY_1325
*1011 PHY_1326
*1012 PHY_1327
*1013 PHY_1328
*1014 PHY_1329
*1015 PHY_133
*1016 PHY_1330
*1017 PHY_1331
*1018 PHY_1332
*1019 PHY_1333
*1020 PHY_1334
*1021 PHY_1335
*1022 PHY_1336
*1023 PHY_1337
*1024 PHY_1338
*1025 PHY_1339
*1026 PHY_134
*1027 PHY_1340
*1028 PHY_1341
*1029 PHY_1342
*1030 PHY_1343
*1031 PHY_1344
*1032 PHY_1345
*1033 PHY_1346
*1034 PHY_1347
*1035 PHY_1348
*1036 PHY_1349
*1037 PHY_135
*1038 PHY_1350
*1039 PHY_1351
*1040 PHY_1352
*1041 PHY_1353
*1042 PHY_1354
*1043 PHY_1355
*1044 PHY_1356
*1045 PHY_1357
*1046 PHY_1358
*1047 PHY_1359
*1048 PHY_136
*1049 PHY_1360
*1050 PHY_1361
*1051 PHY_1362
*1052 PHY_1363
*1053 PHY_1364
*1054 PHY_1365
*1055 PHY_1366
*1056 PHY_1367
*1057 PHY_1368
*1058 PHY_1369
*1059 PHY_137
*1060 PHY_1370
*1061 PHY_1371
*1062 PHY_1372
*1063 PHY_1373
*1064 PHY_1374
*1065 PHY_1375
*1066 PHY_1376
*1067 PHY_1377
*1068 PHY_1378
*1069 PHY_1379
*1070 PHY_138
*1071 PHY_1380
*1072 PHY_1381
*1073 PHY_1382
*1074 PHY_1383
*1075 PHY_1384
*1076 PHY_1385
*1077 PHY_1386
*1078 PHY_1387
*1079 PHY_1388
*1080 PHY_1389
*1081 PHY_139
*1082 PHY_1390
*1083 PHY_1391
*1084 PHY_1392
*1085 PHY_1393
*1086 PHY_1394
*1087 PHY_1395
*1088 PHY_1396
*1089 PHY_1397
*1090 PHY_1398
*1091 PHY_1399
*1092 PHY_14
*1093 PHY_140
*1094 PHY_1400
*1095 PHY_1401
*1096 PHY_1402
*1097 PHY_1403
*1098 PHY_1404
*1099 PHY_1405
*1100 PHY_1406
*1101 PHY_1407
*1102 PHY_1408
*1103 PHY_1409
*1104 PHY_141
*1105 PHY_1410
*1106 PHY_1411
*1107 PHY_1412
*1108 PHY_1413
*1109 PHY_1414
*1110 PHY_1415
*1111 PHY_1416
*1112 PHY_1417
*1113 PHY_1418
*1114 PHY_1419
*1115 PHY_142
*1116 PHY_1420
*1117 PHY_1421
*1118 PHY_1422
*1119 PHY_1423
*1120 PHY_1424
*1121 PHY_1425
*1122 PHY_1426
*1123 PHY_1427
*1124 PHY_1428
*1125 PHY_1429
*1126 PHY_143
*1127 PHY_1430
*1128 PHY_1431
*1129 PHY_1432
*1130 PHY_1433
*1131 PHY_1434
*1132 PHY_1435
*1133 PHY_1436
*1134 PHY_1437
*1135 PHY_1438
*1136 PHY_1439
*1137 PHY_144
*1138 PHY_1440
*1139 PHY_1441
*1140 PHY_1442
*1141 PHY_1443
*1142 PHY_1444
*1143 PHY_1445
*1144 PHY_1446
*1145 PHY_1447
*1146 PHY_1448
*1147 PHY_1449
*1148 PHY_145
*1149 PHY_1450
*1150 PHY_1451
*1151 PHY_1452
*1152 PHY_1453
*1153 PHY_1454
*1154 PHY_1455
*1155 PHY_1456
*1156 PHY_1457
*1157 PHY_1458
*1158 PHY_1459
*1159 PHY_146
*1160 PHY_1460
*1161 PHY_1461
*1162 PHY_1462
*1163 PHY_1463
*1164 PHY_1464
*1165 PHY_1465
*1166 PHY_1466
*1167 PHY_1467
*1168 PHY_1468
*1169 PHY_1469
*1170 PHY_147
*1171 PHY_1470
*1172 PHY_1471
*1173 PHY_1472
*1174 PHY_1473
*1175 PHY_1474
*1176 PHY_1475
*1177 PHY_1476
*1178 PHY_1477
*1179 PHY_1478
*1180 PHY_1479
*1181 PHY_148
*1182 PHY_1480
*1183 PHY_1481
*1184 PHY_1482
*1185 PHY_1483
*1186 PHY_1484
*1187 PHY_1485
*1188 PHY_1486
*1189 PHY_1487
*1190 PHY_1488
*1191 PHY_1489
*1192 PHY_149
*1193 PHY_1490
*1194 PHY_1491
*1195 PHY_1492
*1196 PHY_1493
*1197 PHY_1494
*1198 PHY_1495
*1199 PHY_1496
*1200 PHY_1497
*1201 PHY_1498
*1202 PHY_1499
*1203 PHY_15
*1204 PHY_150
*1205 PHY_1500
*1206 PHY_1501
*1207 PHY_1502
*1208 PHY_1503
*1209 PHY_1504
*1210 PHY_1505
*1211 PHY_1506
*1212 PHY_1507
*1213 PHY_1508
*1214 PHY_1509
*1215 PHY_151
*1216 PHY_1510
*1217 PHY_1511
*1218 PHY_1512
*1219 PHY_1513
*1220 PHY_1514
*1221 PHY_1515
*1222 PHY_1516
*1223 PHY_1517
*1224 PHY_1518
*1225 PHY_1519
*1226 PHY_152
*1227 PHY_1520
*1228 PHY_1521
*1229 PHY_1522
*1230 PHY_1523
*1231 PHY_1524
*1232 PHY_1525
*1233 PHY_1526
*1234 PHY_1527
*1235 PHY_1528
*1236 PHY_1529
*1237 PHY_153
*1238 PHY_1530
*1239 PHY_1531
*1240 PHY_1532
*1241 PHY_1533
*1242 PHY_1534
*1243 PHY_1535
*1244 PHY_1536
*1245 PHY_1537
*1246 PHY_1538
*1247 PHY_1539
*1248 PHY_154
*1249 PHY_1540
*1250 PHY_1541
*1251 PHY_1542
*1252 PHY_1543
*1253 PHY_1544
*1254 PHY_1545
*1255 PHY_1546
*1256 PHY_1547
*1257 PHY_1548
*1258 PHY_1549
*1259 PHY_155
*1260 PHY_1550
*1261 PHY_1551
*1262 PHY_1552
*1263 PHY_1553
*1264 PHY_1554
*1265 PHY_1555
*1266 PHY_1556
*1267 PHY_1557
*1268 PHY_1558
*1269 PHY_1559
*1270 PHY_156
*1271 PHY_1560
*1272 PHY_1561
*1273 PHY_1562
*1274 PHY_1563
*1275 PHY_1564
*1276 PHY_1565
*1277 PHY_1566
*1278 PHY_1567
*1279 PHY_1568
*1280 PHY_1569
*1281 PHY_157
*1282 PHY_1570
*1283 PHY_1571
*1284 PHY_1572
*1285 PHY_1573
*1286 PHY_1574
*1287 PHY_1575
*1288 PHY_1576
*1289 PHY_1577
*1290 PHY_1578
*1291 PHY_1579
*1292 PHY_158
*1293 PHY_1580
*1294 PHY_1581
*1295 PHY_1582
*1296 PHY_1583
*1297 PHY_1584
*1298 PHY_1585
*1299 PHY_1586
*1300 PHY_1587
*1301 PHY_1588
*1302 PHY_1589
*1303 PHY_159
*1304 PHY_1590
*1305 PHY_1591
*1306 PHY_1592
*1307 PHY_1593
*1308 PHY_1594
*1309 PHY_1595
*1310 PHY_1596
*1311 PHY_1597
*1312 PHY_1598
*1313 PHY_1599
*1314 PHY_16
*1315 PHY_160
*1316 PHY_1600
*1317 PHY_1601
*1318 PHY_1602
*1319 PHY_1603
*1320 PHY_1604
*1321 PHY_1605
*1322 PHY_1606
*1323 PHY_1607
*1324 PHY_1608
*1325 PHY_1609
*1326 PHY_161
*1327 PHY_1610
*1328 PHY_1611
*1329 PHY_1612
*1330 PHY_1613
*1331 PHY_1614
*1332 PHY_1615
*1333 PHY_1616
*1334 PHY_1617
*1335 PHY_1618
*1336 PHY_1619
*1337 PHY_162
*1338 PHY_1620
*1339 PHY_1621
*1340 PHY_1622
*1341 PHY_1623
*1342 PHY_1624
*1343 PHY_1625
*1344 PHY_1626
*1345 PHY_1627
*1346 PHY_1628
*1347 PHY_1629
*1348 PHY_163
*1349 PHY_1630
*1350 PHY_1631
*1351 PHY_1632
*1352 PHY_1633
*1353 PHY_1634
*1354 PHY_1635
*1355 PHY_1636
*1356 PHY_1637
*1357 PHY_1638
*1358 PHY_1639
*1359 PHY_164
*1360 PHY_1640
*1361 PHY_1641
*1362 PHY_1642
*1363 PHY_1643
*1364 PHY_1644
*1365 PHY_1645
*1366 PHY_1646
*1367 PHY_1647
*1368 PHY_1648
*1369 PHY_1649
*1370 PHY_165
*1371 PHY_1650
*1372 PHY_1651
*1373 PHY_1652
*1374 PHY_1653
*1375 PHY_1654
*1376 PHY_1655
*1377 PHY_1656
*1378 PHY_1657
*1379 PHY_1658
*1380 PHY_1659
*1381 PHY_166
*1382 PHY_1660
*1383 PHY_1661
*1384 PHY_1662
*1385 PHY_1663
*1386 PHY_1664
*1387 PHY_1665
*1388 PHY_1666
*1389 PHY_1667
*1390 PHY_1668
*1391 PHY_1669
*1392 PHY_167
*1393 PHY_1670
*1394 PHY_1671
*1395 PHY_1672
*1396 PHY_1673
*1397 PHY_1674
*1398 PHY_1675
*1399 PHY_1676
*1400 PHY_1677
*1401 PHY_1678
*1402 PHY_1679
*1403 PHY_168
*1404 PHY_1680
*1405 PHY_1681
*1406 PHY_1682
*1407 PHY_1683
*1408 PHY_1684
*1409 PHY_1685
*1410 PHY_1686
*1411 PHY_1687
*1412 PHY_1688
*1413 PHY_1689
*1414 PHY_169
*1415 PHY_1690
*1416 PHY_1691
*1417 PHY_1692
*1418 PHY_1693
*1419 PHY_1694
*1420 PHY_1695
*1421 PHY_1696
*1422 PHY_1697
*1423 PHY_1698
*1424 PHY_1699
*1425 PHY_17
*1426 PHY_170
*1427 PHY_1700
*1428 PHY_1701
*1429 PHY_1702
*1430 PHY_1703
*1431 PHY_1704
*1432 PHY_1705
*1433 PHY_1706
*1434 PHY_1707
*1435 PHY_1708
*1436 PHY_1709
*1437 PHY_171
*1438 PHY_1710
*1439 PHY_1711
*1440 PHY_1712
*1441 PHY_1713
*1442 PHY_1714
*1443 PHY_1715
*1444 PHY_1716
*1445 PHY_1717
*1446 PHY_1718
*1447 PHY_1719
*1448 PHY_172
*1449 PHY_1720
*1450 PHY_1721
*1451 PHY_1722
*1452 PHY_1723
*1453 PHY_1724
*1454 PHY_1725
*1455 PHY_1726
*1456 PHY_1727
*1457 PHY_1728
*1458 PHY_1729
*1459 PHY_173
*1460 PHY_1730
*1461 PHY_1731
*1462 PHY_1732
*1463 PHY_1733
*1464 PHY_1734
*1465 PHY_1735
*1466 PHY_1736
*1467 PHY_1737
*1468 PHY_1738
*1469 PHY_1739
*1470 PHY_174
*1471 PHY_1740
*1472 PHY_1741
*1473 PHY_1742
*1474 PHY_1743
*1475 PHY_1744
*1476 PHY_1745
*1477 PHY_1746
*1478 PHY_1747
*1479 PHY_1748
*1480 PHY_1749
*1481 PHY_175
*1482 PHY_1750
*1483 PHY_1751
*1484 PHY_1752
*1485 PHY_1753
*1486 PHY_1754
*1487 PHY_1755
*1488 PHY_1756
*1489 PHY_1757
*1490 PHY_1758
*1491 PHY_1759
*1492 PHY_176
*1493 PHY_1760
*1494 PHY_1761
*1495 PHY_1762
*1496 PHY_1763
*1497 PHY_1764
*1498 PHY_1765
*1499 PHY_1766
*1500 PHY_1767
*1501 PHY_1768
*1502 PHY_1769
*1503 PHY_177
*1504 PHY_1770
*1505 PHY_1771
*1506 PHY_1772
*1507 PHY_1773
*1508 PHY_1774
*1509 PHY_1775
*1510 PHY_1776
*1511 PHY_1777
*1512 PHY_1778
*1513 PHY_1779
*1514 PHY_178
*1515 PHY_1780
*1516 PHY_1781
*1517 PHY_1782
*1518 PHY_1783
*1519 PHY_1784
*1520 PHY_1785
*1521 PHY_1786
*1522 PHY_1787
*1523 PHY_1788
*1524 PHY_1789
*1525 PHY_179
*1526 PHY_1790
*1527 PHY_1791
*1528 PHY_1792
*1529 PHY_1793
*1530 PHY_1794
*1531 PHY_1795
*1532 PHY_1796
*1533 PHY_1797
*1534 PHY_1798
*1535 PHY_1799
*1536 PHY_18
*1537 PHY_180
*1538 PHY_1800
*1539 PHY_1801
*1540 PHY_1802
*1541 PHY_1803
*1542 PHY_1804
*1543 PHY_1805
*1544 PHY_1806
*1545 PHY_1807
*1546 PHY_1808
*1547 PHY_1809
*1548 PHY_181
*1549 PHY_1810
*1550 PHY_1811
*1551 PHY_1812
*1552 PHY_1813
*1553 PHY_1814
*1554 PHY_1815
*1555 PHY_1816
*1556 PHY_1817
*1557 PHY_1818
*1558 PHY_1819
*1559 PHY_182
*1560 PHY_1820
*1561 PHY_1821
*1562 PHY_1822
*1563 PHY_1823
*1564 PHY_1824
*1565 PHY_1825
*1566 PHY_1826
*1567 PHY_1827
*1568 PHY_1828
*1569 PHY_1829
*1570 PHY_183
*1571 PHY_1830
*1572 PHY_1831
*1573 PHY_1832
*1574 PHY_1833
*1575 PHY_1834
*1576 PHY_1835
*1577 PHY_1836
*1578 PHY_1837
*1579 PHY_1838
*1580 PHY_1839
*1581 PHY_184
*1582 PHY_1840
*1583 PHY_1841
*1584 PHY_1842
*1585 PHY_1843
*1586 PHY_1844
*1587 PHY_1845
*1588 PHY_1846
*1589 PHY_1847
*1590 PHY_1848
*1591 PHY_1849
*1592 PHY_185
*1593 PHY_1850
*1594 PHY_1851
*1595 PHY_1852
*1596 PHY_1853
*1597 PHY_1854
*1598 PHY_1855
*1599 PHY_1856
*1600 PHY_1857
*1601 PHY_1858
*1602 PHY_1859
*1603 PHY_186
*1604 PHY_1860
*1605 PHY_1861
*1606 PHY_1862
*1607 PHY_1863
*1608 PHY_1864
*1609 PHY_1865
*1610 PHY_1866
*1611 PHY_1867
*1612 PHY_1868
*1613 PHY_1869
*1614 PHY_187
*1615 PHY_1870
*1616 PHY_1871
*1617 PHY_1872
*1618 PHY_1873
*1619 PHY_1874
*1620 PHY_1875
*1621 PHY_1876
*1622 PHY_1877
*1623 PHY_1878
*1624 PHY_1879
*1625 PHY_188
*1626 PHY_1880
*1627 PHY_1881
*1628 PHY_1882
*1629 PHY_1883
*1630 PHY_1884
*1631 PHY_1885
*1632 PHY_1886
*1633 PHY_1887
*1634 PHY_1888
*1635 PHY_1889
*1636 PHY_189
*1637 PHY_1890
*1638 PHY_1891
*1639 PHY_1892
*1640 PHY_1893
*1641 PHY_1894
*1642 PHY_1895
*1643 PHY_1896
*1644 PHY_1897
*1645 PHY_1898
*1646 PHY_1899
*1647 PHY_19
*1648 PHY_190
*1649 PHY_1900
*1650 PHY_1901
*1651 PHY_1902
*1652 PHY_1903
*1653 PHY_1904
*1654 PHY_1905
*1655 PHY_1906
*1656 PHY_1907
*1657 PHY_1908
*1658 PHY_1909
*1659 PHY_191
*1660 PHY_1910
*1661 PHY_1911
*1662 PHY_1912
*1663 PHY_1913
*1664 PHY_1914
*1665 PHY_1915
*1666 PHY_1916
*1667 PHY_1917
*1668 PHY_1918
*1669 PHY_1919
*1670 PHY_192
*1671 PHY_1920
*1672 PHY_1921
*1673 PHY_1922
*1674 PHY_1923
*1675 PHY_1924
*1676 PHY_1925
*1677 PHY_1926
*1678 PHY_1927
*1679 PHY_1928
*1680 PHY_1929
*1681 PHY_193
*1682 PHY_1930
*1683 PHY_1931
*1684 PHY_1932
*1685 PHY_1933
*1686 PHY_1934
*1687 PHY_1935
*1688 PHY_1936
*1689 PHY_1937
*1690 PHY_1938
*1691 PHY_1939
*1692 PHY_194
*1693 PHY_1940
*1694 PHY_1941
*1695 PHY_1942
*1696 PHY_1943
*1697 PHY_1944
*1698 PHY_1945
*1699 PHY_1946
*1700 PHY_1947
*1701 PHY_1948
*1702 PHY_1949
*1703 PHY_195
*1704 PHY_1950
*1705 PHY_1951
*1706 PHY_1952
*1707 PHY_1953
*1708 PHY_1954
*1709 PHY_1955
*1710 PHY_1956
*1711 PHY_1957
*1712 PHY_1958
*1713 PHY_1959
*1714 PHY_196
*1715 PHY_1960
*1716 PHY_1961
*1717 PHY_1962
*1718 PHY_1963
*1719 PHY_1964
*1720 PHY_1965
*1721 PHY_1966
*1722 PHY_1967
*1723 PHY_1968
*1724 PHY_1969
*1725 PHY_197
*1726 PHY_1970
*1727 PHY_1971
*1728 PHY_1972
*1729 PHY_1973
*1730 PHY_1974
*1731 PHY_1975
*1732 PHY_1976
*1733 PHY_1977
*1734 PHY_1978
*1735 PHY_1979
*1736 PHY_198
*1737 PHY_1980
*1738 PHY_1981
*1739 PHY_1982
*1740 PHY_1983
*1741 PHY_1984
*1742 PHY_1985
*1743 PHY_1986
*1744 PHY_1987
*1745 PHY_1988
*1746 PHY_1989
*1747 PHY_199
*1748 PHY_1990
*1749 PHY_1991
*1750 PHY_1992
*1751 PHY_1993
*1752 PHY_1994
*1753 PHY_1995
*1754 PHY_1996
*1755 PHY_1997
*1756 PHY_1998
*1757 PHY_1999
*1758 PHY_2
*1759 PHY_20
*1760 PHY_200
*1761 PHY_2000
*1762 PHY_2001
*1763 PHY_2002
*1764 PHY_2003
*1765 PHY_2004
*1766 PHY_2005
*1767 PHY_2006
*1768 PHY_2007
*1769 PHY_2008
*1770 PHY_2009
*1771 PHY_201
*1772 PHY_2010
*1773 PHY_2011
*1774 PHY_2012
*1775 PHY_2013
*1776 PHY_2014
*1777 PHY_2015
*1778 PHY_2016
*1779 PHY_2017
*1780 PHY_2018
*1781 PHY_2019
*1782 PHY_202
*1783 PHY_2020
*1784 PHY_2021
*1785 PHY_2022
*1786 PHY_2023
*1787 PHY_2024
*1788 PHY_2025
*1789 PHY_2026
*1790 PHY_2027
*1791 PHY_2028
*1792 PHY_2029
*1793 PHY_203
*1794 PHY_2030
*1795 PHY_2031
*1796 PHY_2032
*1797 PHY_2033
*1798 PHY_2034
*1799 PHY_2035
*1800 PHY_2036
*1801 PHY_2037
*1802 PHY_2038
*1803 PHY_2039
*1804 PHY_204
*1805 PHY_2040
*1806 PHY_2041
*1807 PHY_2042
*1808 PHY_2043
*1809 PHY_2044
*1810 PHY_2045
*1811 PHY_2046
*1812 PHY_2047
*1813 PHY_2048
*1814 PHY_2049
*1815 PHY_205
*1816 PHY_2050
*1817 PHY_2051
*1818 PHY_2052
*1819 PHY_2053
*1820 PHY_2054
*1821 PHY_2055
*1822 PHY_2056
*1823 PHY_2057
*1824 PHY_2058
*1825 PHY_2059
*1826 PHY_206
*1827 PHY_2060
*1828 PHY_2061
*1829 PHY_2062
*1830 PHY_2063
*1831 PHY_2064
*1832 PHY_2065
*1833 PHY_2066
*1834 PHY_2067
*1835 PHY_2068
*1836 PHY_2069
*1837 PHY_207
*1838 PHY_2070
*1839 PHY_2071
*1840 PHY_2072
*1841 PHY_2073
*1842 PHY_2074
*1843 PHY_2075
*1844 PHY_2076
*1845 PHY_2077
*1846 PHY_2078
*1847 PHY_2079
*1848 PHY_208
*1849 PHY_2080
*1850 PHY_2081
*1851 PHY_2082
*1852 PHY_2083
*1853 PHY_2084
*1854 PHY_2085
*1855 PHY_2086
*1856 PHY_2087
*1857 PHY_2088
*1858 PHY_2089
*1859 PHY_209
*1860 PHY_2090
*1861 PHY_2091
*1862 PHY_2092
*1863 PHY_2093
*1864 PHY_2094
*1865 PHY_2095
*1866 PHY_2096
*1867 PHY_2097
*1868 PHY_2098
*1869 PHY_2099
*1870 PHY_21
*1871 PHY_210
*1872 PHY_2100
*1873 PHY_2101
*1874 PHY_2102
*1875 PHY_2103
*1876 PHY_2104
*1877 PHY_2105
*1878 PHY_2106