*SPEF "ieee 1481-1999"
*DESIGN "wrapper_cell"
*DATE "11:11:11 Fri 11 11, 1111"
*VENDOR "OpenRCX"
*PROGRAM "Parallel Extraction"
*VERSION "1.0"
*DESIGN_FLOW "NAME_SCOPE LOCAL" "PIN_CAP NONE"
*DIVIDER /
*DELIMITER :
*BUS_DELIMITER []
*T_UNIT 1 NS
*C_UNIT 1 PF
*R_UNIT 1 OHM
*L_UNIT 1 HENRY

*NAME_MAP
*1 cclk_I
*2 cclk_Q
*3 clk_master
*4 clk_master_out
*5 clkdiv2
*6 comp_high_I
*7 comp_high_Q
*8 cos_out
*9 cos_outb
*10 div2out
*11 fb1_I
*12 fb1_Q
*13 fb2_I
*14 fb2_Q
*15 gray_clk_in[0]
*16 gray_clk_in[1]
*17 gray_clk_in[2]
*18 gray_clk_in[3]
*19 gray_clk_in[4]
*20 gray_clk_in[5]
*21 gray_clk_in[6]
*22 gray_clk_in[7]
*23 gray_clk_in[8]
*24 gray_clk_in[9]
*25 gray_clk_out[10]
*26 gray_clk_out[1]
*27 gray_clk_out[2]
*28 gray_clk_out[3]
*29 gray_clk_out[4]
*30 gray_clk_out[5]
*31 gray_clk_out[6]
*32 gray_clk_out[7]
*33 gray_clk_out[8]
*34 gray_clk_out[9]
*35 no_ones_below_in[0]
*36 no_ones_below_in[1]
*37 no_ones_below_in[2]
*38 no_ones_below_out[0]
*39 no_ones_below_out[1]
*40 no_ones_below_out[2]
*41 phi1b_dig_I
*42 phi1b_dig_Q
*43 read_out_I[0]
*44 read_out_I[1]
*45 read_out_Q[0]
*46 read_out_Q[1]
*47 rstb
*48 rstb_out
*49 sin_out
*50 sin_outb
*51 ud_en
*52 ud_en_out
*55 POL_EVE_I\.comp_out
*56 POL_EVE_I\.dff1\.q
*57 POL_EVE_I\.dff2\.q
*58 POL_EVE_I\.dff3\.q
*59 POL_EVE_I\.eve
*60 POL_EVE_I\.polxevent
*61 POL_EVE_Q\.comp_out
*62 POL_EVE_Q\.dff1\.q
*63 POL_EVE_Q\.dff2\.q
*64 POL_EVE_Q\.dff3\.q
*65 POL_EVE_Q\.eve
*66 POL_EVE_Q\.polxevent
*67 _002_
*68 _003_
*69 _004_
*70 _005_
*71 _006_
*72 _007_
*73 _008_
*74 _009_
*75 _010_
*76 _011_
*77 _012_
*78 _013_
*79 _014_
*80 _015_
*81 _016_
*82 _017_
*83 _018_
*84 _019_
*85 _020_
*86 _021_
*87 _022_
*88 _023_
*89 _024_
*90 _025_
*91 _026_
*92 _027_
*93 _028_
*94 _029_
*95 _030_
*96 _031_
*97 _032_
*98 _033_
*99 _034_
*100 _035_
*101 _036_
*102 _037_
*103 _038_
*104 _039_
*105 _040_
*106 _041_
*107 _042_
*108 _043_
*109 _044_
*110 _045_
*111 _046_
*112 _047_
*113 _048_
*114 _049_
*115 _050_
*116 _051_
*117 _052_
*118 _053_
*119 _054_
*120 _055_
*121 _056_
*122 _057_
*123 _058_
*124 _059_
*125 _060_
*126 _061_
*127 _062_
*128 _064_
*129 _067_
*130 _070_
*131 _073_
*132 _075_
*133 _076_
*134 _077_
*135 _078_
*136 _079_
*137 _080_
*138 _081_
*139 _082_
*140 _083_
*141 _084_
*142 _085_
*143 _086_
*144 _087_
*145 _088_
*146 _089_
*147 _090_
*148 _091_
*149 _092_
*150 _093_
*151 _094_
*152 _095_
*153 _096_
*154 _097_
*155 _098_
*156 _099_
*157 _100_
*158 _101_
*159 _102_
*160 _103_
*161 _104_
*162 _105_
*163 _106_
*164 _107_
*165 _108_
*166 _109_
*167 _110_
*168 _111_
*169 _112_
*170 _113_
*171 _114_
*172 _115_
*173 _116_
*174 _117_
*175 _118_
*176 _119_
*177 _120_
*178 _121_
*179 _122_
*180 _123_
*181 _124_
*182 _125_
*183 _126_
*184 _127_
*185 _128_
*186 _129_
*187 _130_
*188 _131_
*189 _132_
*190 _133_
*191 _134_
*192 _135_
*193 _136_
*194 _137_
*195 _138_
*196 _139_
*197 _140_
*198 _141_
*199 _142_
*200 _143_
*201 _144_
*202 _145_
*203 _146_
*204 _147_
*205 _148_
*206 _149_
*207 _150_
*208 _151_
*209 _152_
*210 _153_
*211 _154_
*212 _155_
*213 _156_
*214 _157_
*215 _158_
*216 _159_
*217 _160_
*218 _161_
*219 _162_
*220 _163_
*221 _164_
*222 _165_
*223 _166_
*224 _167_
*225 _168_
*226 _169_
*227 _170_
*228 _171_
*229 _172_
*230 _173_
*231 _174_
*232 _175_
*233 _176_
*234 _177_
*235 _178_
*236 _179_
*237 _180_
*238 _181_
*239 _182_
*240 _183_
*241 _184_
*242 _185_
*243 _186_
*244 _187_
*245 _188_
*246 _189_
*247 _190_
*248 _191_
*249 _192_
*250 _193_
*251 _194_
*252 _195_
*253 _196_
*254 _197_
*255 _198_
*256 _199_
*257 _200_
*258 _201_
*259 _202_
*260 _203_
*261 _204_
*262 _205_
*263 _206_
*264 _207_
*265 _208_
*266 _209_
*267 _210_
*268 _211_
*269 _212_
*270 _213_
*271 _214_
*272 _215_
*273 _216_
*274 _217_
*275 _218_
*276 _219_
*277 _220_
*278 _221_
*279 _222_
*280 _223_
*281 clknet_0__075_
*282 clknet_0__219_
*283 clknet_0_clk_master
*284 clknet_1_0_0__075_
*285 clknet_1_0_0__219_
*286 clknet_1_0_0_clk_master
*287 clknet_1_1_0__075_
*288 clknet_1_1_0__219_
*289 clknet_1_1_0_clk_master
*290 div2\.dff\.d
*291 fb_block_I\.gs_f\.fb_gray_selector_loop\[0\]\.dl\.d
*292 fb_block_I\.gs_f\.fb_gray_selector_loop\[0\]\.eff3\.d1
*293 fb_block_I\.gs_f\.fb_gray_selector_loop\[0\]\.eff3\.d2
*294 fb_block_I\.gs_f\.fb_gray_selector_loop\[0\]\.eff3\.dff\.q
*295 fb_block_I\.gs_f\.fb_gray_selector_loop\[0\]\.eff3\.dff_n\.q
*296 fb_block_I\.gs_f\.fb_gray_selector_loop\[0\]\.t_buf\.ctrlb
*297 fb_block_I\.gs_f\.fb_gray_selector_loop\[0\]\.t_buf\.in
*298 fb_block_I\.gs_f\.fb_gray_selector_loop\[1\]\.eff3\.d1
*299 fb_block_I\.gs_f\.fb_gray_selector_loop\[1\]\.eff3\.d2
*300 fb_block_I\.gs_f\.fb_gray_selector_loop\[1\]\.eff3\.dff\.q
*301 fb_block_I\.gs_f\.fb_gray_selector_loop\[1\]\.eff3\.dff_n\.q
*302 fb_block_I\.gs_f\.fb_gray_selector_loop\[1\]\.t_buf\.ctrlb
*303 fb_block_I\.gs_f\.fb_gray_selector_loop\[1\]\.t_buf\.in
*304 fb_block_I\.gs_f\.fb_gray_selector_loop\[2\]\.eff3\.d1
*305 fb_block_I\.gs_f\.fb_gray_selector_loop\[2\]\.eff3\.d2
*306 fb_block_I\.gs_f\.fb_gray_selector_loop\[2\]\.eff3\.dff\.q
*307 fb_block_I\.gs_f\.fb_gray_selector_loop\[2\]\.eff3\.dff_n\.q
*308 fb_block_I\.gs_f\.fb_gray_selector_loop\[2\]\.t_buf\.ctrlb
*309 fb_block_I\.gs_f\.fb_gray_selector_loop\[2\]\.t_buf\.in
*310 fb_block_I\.gs_f\.fb_gray_selector_loop\[3\]\.eff3\.d1
*311 fb_block_I\.gs_f\.fb_gray_selector_loop\[3\]\.eff3\.d2
*312 fb_block_I\.gs_f\.fb_gray_selector_loop\[3\]\.eff3\.dff\.q
*313 fb_block_I\.gs_f\.fb_gray_selector_loop\[3\]\.eff3\.dff_n\.q
*314 fb_block_I\.gs_f\.fb_gray_selector_loop\[3\]\.t_buf\.ctrlb
*315 fb_block_I\.gs_f\.fb_gray_selector_loop\[3\]\.t_buf\.in
*316 fb_block_I\.gs_f\.fb_gray_selector_loop\[4\]\.eff3\.d1
*317 fb_block_I\.gs_f\.fb_gray_selector_loop\[4\]\.eff3\.d2
*318 fb_block_I\.gs_f\.fb_gray_selector_loop\[4\]\.eff3\.dff\.q
*319 fb_block_I\.gs_f\.fb_gray_selector_loop\[4\]\.eff3\.dff_n\.q
*320 fb_block_I\.gs_f\.fb_gray_selector_loop\[4\]\.t_buf\.ctrlb
*321 fb_block_I\.gs_f\.fb_gray_selector_loop\[4\]\.t_buf\.in
*322 fb_block_I\.gs_f\.fb_gray_selector_loop\[5\]\.eff3\.d1
*323 fb_block_I\.gs_f\.fb_gray_selector_loop\[5\]\.eff3\.d2
*324 fb_block_I\.gs_f\.fb_gray_selector_loop\[5\]\.eff3\.dff\.q
*325 fb_block_I\.gs_f\.fb_gray_selector_loop\[5\]\.eff3\.dff_n\.q
*326 fb_block_I\.gs_f\.fb_gray_selector_loop\[5\]\.t_buf\.ctrlb
*327 fb_block_I\.gs_f\.fb_gray_selector_loop\[5\]\.t_buf\.in
*328 fb_block_I\.gs_f\.fb_gray_selector_loop\[6\]\.eff3\.d1
*329 fb_block_I\.gs_f\.fb_gray_selector_loop\[6\]\.eff3\.d2
*330 fb_block_I\.gs_f\.fb_gray_selector_loop\[6\]\.eff3\.dff\.q
*331 fb_block_I\.gs_f\.fb_gray_selector_loop\[6\]\.eff3\.dff_n\.q
*332 fb_block_I\.gs_f\.fb_gray_selector_loop\[6\]\.t_buf\.ctrlb
*333 fb_block_I\.gs_f\.fb_gray_selector_loop\[6\]\.t_buf\.in
*334 fb_block_I\.gs_f\.fb_gray_selector_loop\[7\]\.eff3\.d1
*335 fb_block_I\.gs_f\.fb_gray_selector_loop\[7\]\.eff3\.d2
*336 fb_block_I\.gs_f\.fb_gray_selector_loop\[7\]\.eff3\.dff\.q
*337 fb_block_I\.gs_f\.fb_gray_selector_loop\[7\]\.eff3\.dff_n\.q
*338 fb_block_I\.gs_f\.fb_gray_selector_loop\[7\]\.t_buf\.ctrlb
*339 fb_block_I\.gs_f\.fb_gray_selector_loop\[7\]\.t_buf\.in
*340 fb_block_I\.gs_f\.fb_gray_selector_loop\[8\]\.eff3\.d1
*341 fb_block_I\.gs_f\.fb_gray_selector_loop\[8\]\.eff3\.d2
*342 fb_block_I\.gs_f\.fb_gray_selector_loop\[8\]\.eff3\.dff\.q
*343 fb_block_I\.gs_f\.fb_gray_selector_loop\[8\]\.eff3\.dff_n\.q
*344 fb_block_I\.gs_f\.fb_gray_selector_loop\[8\]\.t_buf\.ctrlb
*345 fb_block_I\.gs_f\.fb_gray_selector_loop\[8\]\.t_buf\.in
*346 fb_block_I\.gs_f\.fb_gray_selector_loop\[9\]\.eff3\.clk
*347 fb_block_I\.gs_f\.fb_gray_selector_loop\[9\]\.eff3\.d1
*348 fb_block_I\.gs_f\.fb_gray_selector_loop\[9\]\.eff3\.d2
*349 fb_block_I\.gs_f\.fb_gray_selector_loop\[9\]\.eff3\.dff\.q
*350 fb_block_I\.gs_f\.fb_gray_selector_loop\[9\]\.eff3\.dff_n\.q
*351 fb_block_I\.gs_f\.fb_gray_selector_loop\[9\]\.t_buf\.ctrlb
*352 fb_block_I\.gs_f\.fb_gray_selector_loop\[9\]\.t_buf\.in
*353 fb_block_I\.ud_c\.bin_counter\[0\]\.cc\.q
*354 fb_block_I\.ud_c\.bin_counter\[0\]\.cc\.tff1\.d
*355 fb_block_I\.ud_c\.bin_counter\[10\]\.cc\.tff1\.d
*356 fb_block_I\.ud_c\.bin_counter\[11\]\.cc\.tff1\.d
*357 fb_block_I\.ud_c\.bin_counter\[12\]\.cc\.tff1\.d
*358 fb_block_I\.ud_c\.bin_counter\[13\]\.cc\.tff1\.d
*359 fb_block_I\.ud_c\.bin_counter\[1\]\.cc\.q
*360 fb_block_I\.ud_c\.bin_counter\[1\]\.cc\.tff1\.d
*361 fb_block_I\.ud_c\.bin_counter\[2\]\.cc\.q
*362 fb_block_I\.ud_c\.bin_counter\[2\]\.cc\.tff1\.d
*363 fb_block_I\.ud_c\.bin_counter\[3\]\.cc\.q
*364 fb_block_I\.ud_c\.bin_counter\[3\]\.cc\.tff1\.d
*365 fb_block_I\.ud_c\.bin_counter\[4\]\.cc\.q
*366 fb_block_I\.ud_c\.bin_counter\[4\]\.cc\.tff1\.d
*367 fb_block_I\.ud_c\.bin_counter\[5\]\.cc\.tff1\.d
*368 fb_block_I\.ud_c\.bin_counter\[6\]\.cc\.tff1\.d
*369 fb_block_I\.ud_c\.bin_counter\[7\]\.cc\.tff1\.d
*370 fb_block_I\.ud_c\.bin_counter\[8\]\.cc\.tff1\.d
*371 fb_block_I\.ud_c\.bin_counter\[9\]\.cc\.tff1\.d
*372 fb_block_I\.ud_c\.cc1\.q
*373 fb_block_I\.ud_c\.cc1\.tff1\.d
*374 fb_block_I\.ud_c\.tff_end\.d
*375 fb_block_Q\.gs_f\.fb_gray_selector_loop\[0\]\.dl\.d
*376 fb_block_Q\.gs_f\.fb_gray_selector_loop\[0\]\.eff3\.d1
*377 fb_block_Q\.gs_f\.fb_gray_selector_loop\[0\]\.eff3\.d2
*378 fb_block_Q\.gs_f\.fb_gray_selector_loop\[0\]\.eff3\.dff\.q
*379 fb_block_Q\.gs_f\.fb_gray_selector_loop\[0\]\.eff3\.dff_n\.q
*380 fb_block_Q\.gs_f\.fb_gray_selector_loop\[0\]\.t_buf\.ctrlb
*381 fb_block_Q\.gs_f\.fb_gray_selector_loop\[0\]\.t_buf\.in
*382 fb_block_Q\.gs_f\.fb_gray_selector_loop\[1\]\.eff3\.d1
*383 fb_block_Q\.gs_f\.fb_gray_selector_loop\[1\]\.eff3\.d2
*384 fb_block_Q\.gs_f\.fb_gray_selector_loop\[1\]\.eff3\.dff\.q
*385 fb_block_Q\.gs_f\.fb_gray_selector_loop\[1\]\.eff3\.dff_n\.q
*386 fb_block_Q\.gs_f\.fb_gray_selector_loop\[1\]\.t_buf\.ctrlb
*387 fb_block_Q\.gs_f\.fb_gray_selector_loop\[1\]\.t_buf\.in
*388 fb_block_Q\.gs_f\.fb_gray_selector_loop\[2\]\.eff3\.d1
*389 fb_block_Q\.gs_f\.fb_gray_selector_loop\[2\]\.eff3\.d2
*390 fb_block_Q\.gs_f\.fb_gray_selector_loop\[2\]\.eff3\.dff\.q
*391 fb_block_Q\.gs_f\.fb_gray_selector_loop\[2\]\.eff3\.dff_n\.q
*392 fb_block_Q\.gs_f\.fb_gray_selector_loop\[2\]\.t_buf\.ctrlb
*393 fb_block_Q\.gs_f\.fb_gray_selector_loop\[2\]\.t_buf\.in
*394 fb_block_Q\.gs_f\.fb_gray_selector_loop\[3\]\.eff3\.d1
*395 fb_block_Q\.gs_f\.fb_gray_selector_loop\[3\]\.eff3\.d2
*396 fb_block_Q\.gs_f\.fb_gray_selector_loop\[3\]\.eff3\.dff\.q
*397 fb_block_Q\.gs_f\.fb_gray_selector_loop\[3\]\.eff3\.dff_n\.q
*398 fb_block_Q\.gs_f\.fb_gray_selector_loop\[3\]\.t_buf\.ctrlb
*399 fb_block_Q\.gs_f\.fb_gray_selector_loop\[3\]\.t_buf\.in
*400 fb_block_Q\.gs_f\.fb_gray_selector_loop\[4\]\.eff3\.d1
*401 fb_block_Q\.gs_f\.fb_gray_selector_loop\[4\]\.eff3\.d2
*402 fb_block_Q\.gs_f\.fb_gray_selector_loop\[4\]\.eff3\.dff\.q
*403 fb_block_Q\.gs_f\.fb_gray_selector_loop\[4\]\.eff3\.dff_n\.q
*404 fb_block_Q\.gs_f\.fb_gray_selector_loop\[4\]\.t_buf\.ctrlb
*405 fb_block_Q\.gs_f\.fb_gray_selector_loop\[4\]\.t_buf\.in
*406 fb_block_Q\.gs_f\.fb_gray_selector_loop\[5\]\.eff3\.d1
*407 fb_block_Q\.gs_f\.fb_gray_selector_loop\[5\]\.eff3\.d2
*408 fb_block_Q\.gs_f\.fb_gray_selector_loop\[5\]\.eff3\.dff\.q
*409 fb_block_Q\.gs_f\.fb_gray_selector_loop\[5\]\.eff3\.dff_n\.q
*410 fb_block_Q\.gs_f\.fb_gray_selector_loop\[5\]\.t_buf\.ctrlb
*411 fb_block_Q\.gs_f\.fb_gray_selector_loop\[5\]\.t_buf\.in
*412 fb_block_Q\.gs_f\.fb_gray_selector_loop\[6\]\.eff3\.d1
*413 fb_block_Q\.gs_f\.fb_gray_selector_loop\[6\]\.eff3\.d2
*414 fb_block_Q\.gs_f\.fb_gray_selector_loop\[6\]\.eff3\.dff\.q
*415 fb_block_Q\.gs_f\.fb_gray_selector_loop\[6\]\.eff3\.dff_n\.q
*416 fb_block_Q\.gs_f\.fb_gray_selector_loop\[6\]\.t_buf\.ctrlb
*417 fb_block_Q\.gs_f\.fb_gray_selector_loop\[6\]\.t_buf\.in
*418 fb_block_Q\.gs_f\.fb_gray_selector_loop\[7\]\.eff3\.d1
*419 fb_block_Q\.gs_f\.fb_gray_selector_loop\[7\]\.eff3\.d2
*420 fb_block_Q\.gs_f\.fb_gray_selector_loop\[7\]\.eff3\.dff\.q
*421 fb_block_Q\.gs_f\.fb_gray_selector_loop\[7\]\.eff3\.dff_n\.q
*422 fb_block_Q\.gs_f\.fb_gray_selector_loop\[7\]\.t_buf\.ctrlb
*423 fb_block_Q\.gs_f\.fb_gray_selector_loop\[7\]\.t_buf\.in
*424 fb_block_Q\.gs_f\.fb_gray_selector_loop\[8\]\.eff3\.d1
*425 fb_block_Q\.gs_f\.fb_gray_selector_loop\[8\]\.eff3\.d2
*426 fb_block_Q\.gs_f\.fb_gray_selector_loop\[8\]\.eff3\.dff\.q
*427 fb_block_Q\.gs_f\.fb_gray_selector_loop\[8\]\.eff3\.dff_n\.q
*428 fb_block_Q\.gs_f\.fb_gray_selector_loop\[8\]\.t_buf\.ctrlb
*429 fb_block_Q\.gs_f\.fb_gray_selector_loop\[8\]\.t_buf\.in
*430 fb_block_Q\.gs_f\.fb_gray_selector_loop\[9\]\.eff3\.d1
*431 fb_block_Q\.gs_f\.fb_gray_selector_loop\[9\]\.eff3\.d2
*432 fb_block_Q\.gs_f\.fb_gray_selector_loop\[9\]\.eff3\.dff\.q
*433 fb_block_Q\.gs_f\.fb_gray_selector_loop\[9\]\.eff3\.dff_n\.q
*434 fb_block_Q\.gs_f\.fb_gray_selector_loop\[9\]\.t_buf\.ctrlb
*435 fb_block_Q\.gs_f\.fb_gray_selector_loop\[9\]\.t_buf\.in
*436 fb_block_Q\.ud_c\.bin_counter\[0\]\.cc\.q
*437 fb_block_Q\.ud_c\.bin_counter\[0\]\.cc\.tff1\.d
*438 fb_block_Q\.ud_c\.bin_counter\[10\]\.cc\.tff1\.d
*439 fb_block_Q\.ud_c\.bin_counter\[11\]\.cc\.tff1\.d
*440 fb_block_Q\.ud_c\.bin_counter\[12\]\.cc\.tff1\.d
*441 fb_block_Q\.ud_c\.bin_counter\[13\]\.cc\.tff1\.d
*442 fb_block_Q\.ud_c\.bin_counter\[1\]\.cc\.q
*443 fb_block_Q\.ud_c\.bin_counter\[1\]\.cc\.tff1\.d
*444 fb_block_Q\.ud_c\.bin_counter\[2\]\.cc\.q
*445 fb_block_Q\.ud_c\.bin_counter\[2\]\.cc\.tff1\.d
*446 fb_block_Q\.ud_c\.bin_counter\[3\]\.cc\.q
*447 fb_block_Q\.ud_c\.bin_counter\[3\]\.cc\.tff1\.d
*448 fb_block_Q\.ud_c\.bin_counter\[4\]\.cc\.q
*449 fb_block_Q\.ud_c\.bin_counter\[4\]\.cc\.tff1\.d
*450 fb_block_Q\.ud_c\.bin_counter\[5\]\.cc\.tff1\.d
*451 fb_block_Q\.ud_c\.bin_counter\[6\]\.cc\.tff1\.d
*452 fb_block_Q\.ud_c\.bin_counter\[7\]\.cc\.tff1\.d
*453 fb_block_Q\.ud_c\.bin_counter\[8\]\.cc\.tff1\.d
*454 fb_block_Q\.ud_c\.bin_counter\[9\]\.cc\.tff1\.d
*455 fb_block_Q\.ud_c\.cc1\.q
*456 fb_block_Q\.ud_c\.cc1\.tff1\.d
*457 fb_block_Q\.ud_c\.tff_end\.d
*458 gray_tree\.gray\.eff_gray\.d1
*459 gray_tree\.gray\.eff_gray\.d2
*460 gray_tree\.gray\.eff_gray\.dff\.q
*461 gray_tree\.gray\.eff_gray\.dff_n\.q
*462 gray_tree\.gray\.no_ones_below_jm1
*463 gray_tree\.sine_cell2\.eff_gray\.d1
*464 gray_tree\.sine_cell2\.eff_gray\.d2
*465 gray_tree\.sine_cell2\.eff_gray\.dff\.q
*466 gray_tree\.sine_cell2\.eff_gray\.dff_n\.q
*467 net1
*468 net10
*469 net11
*470 net12
*471 net13
*472 net14
*473 net15
*474 net16
*475 net17
*476 net18
*477 net19
*478 net2
*479 net20
*480 net21
*481 net22
*482 net23
*483 net24
*484 net25
*485 net26
*486 net27
*487 net28
*488 net29
*489 net3
*490 net30
*491 net31
*492 net32
*493 net33
*494 net34
*495 net35
*496 net36
*497 net37
*498 net38
*499 net39
*500 net4
*501 net40
*502 net41
*503 net42
*504 net43
*505 net44
*506 net45
*507 net46
*508 net47
*509 net48
*510 net49
*511 net5
*512 net50
*513 net51
*514 net52
*515 net53
*516 net54
*517 net55
*518 net56
*519 net57
*520 net58
*521 net59
*522 net6
*523 net60
*524 net61
*525 net7
*526 net8
*527 net9
*528 ro_block_I\.out_mux_eve
*529 ro_block_I\.out_mux_pol_eve
*530 ro_block_I\.ro_pol\.eff\.d1
*531 ro_block_I\.ro_pol\.eff\.d2
*532 ro_block_I\.ro_pol\.eff\.dff\.q
*533 ro_block_I\.ro_pol\.eff\.dff_n\.q
*534 ro_block_I\.ro_pol\.eff_outb
*535 ro_block_I\.ro_pol_eve\.eff\.d1
*536 ro_block_I\.ro_pol_eve\.eff\.d2
*537 ro_block_I\.ro_pol_eve\.eff\.dff\.q
*538 ro_block_I\.ro_pol_eve\.eff\.dff_n\.q
*539 ro_block_I\.ro_pol_eve\.eff_outb
*540 ro_block_Q\.out_mux_eve
*541 ro_block_Q\.out_mux_pol_eve
*542 ro_block_Q\.ro_pol\.eff\.d1
*543 ro_block_Q\.ro_pol\.eff\.d2
*544 ro_block_Q\.ro_pol\.eff\.dff\.q
*545 ro_block_Q\.ro_pol\.eff\.dff_n\.q
*546 ro_block_Q\.ro_pol\.eff_outb
*547 ro_block_Q\.ro_pol_eve\.eff\.d1
*548 ro_block_Q\.ro_pol_eve\.eff\.d2
*549 ro_block_Q\.ro_pol_eve\.eff\.dff\.q
*550 ro_block_Q\.ro_pol_eve\.eff\.dff_n\.q
*551 ro_block_Q\.ro_pol_eve\.eff_outb
*552 ANTENNA__225__1_A
*553 ANTENNA__226__2_A
*554 ANTENNA__229__A
*555 ANTENNA__230__A
*556 ANTENNA__238__A
*557 ANTENNA__239__A
*558 ANTENNA__240__A
*559 ANTENNA__241__A
*560 ANTENNA__242__A
*561 ANTENNA__244__A
*562 ANTENNA__245__A
*563 ANTENNA__246__A
*564 ANTENNA__247__A
*565 ANTENNA__248__A
*566 ANTENNA__250__A
*567 ANTENNA__251__A
*568 ANTENNA__252__A
*569 ANTENNA__253__A
*570 ANTENNA__254__A
*571 ANTENNA__255__A
*572 ANTENNA__256__A
*573 ANTENNA__257__A
*574 ANTENNA__258__A
*575 ANTENNA__259__A
*576 ANTENNA__260__A
*577 ANTENNA__260__B_N
*578 ANTENNA__261__A_N
*579 ANTENNA__261__B
*580 ANTENNA__261__C
*581 ANTENNA__262__B1
*582 ANTENNA__263__A1
*583 ANTENNA__263__A2
*584 ANTENNA__263__A3
*585 ANTENNA__264__A
*586 ANTENNA__265__A
*587 ANTENNA__266__A1
*588 ANTENNA__266__S
*589 ANTENNA__267__A
*590 ANTENNA__267__B
*591 ANTENNA__268__A
*592 ANTENNA__268__B
*593 ANTENNA__268__C
*594 ANTENNA__269__B1
*595 ANTENNA__269__C1
*596 ANTENNA__270__A1
*597 ANTENNA__271__A
*598 ANTENNA__272__A1
*599 ANTENNA__272__A2
*600 ANTENNA__272__B1
*601 ANTENNA__273__A
*602 ANTENNA__273__B
*603 ANTENNA__273__C
*604 ANTENNA__274__A2
*605 ANTENNA__274__B1
*606 ANTENNA__274__C1
*607 ANTENNA__275__A1
*608 ANTENNA__275__B1
*609 ANTENNA__277__B
*610 ANTENNA__278__A
*611 ANTENNA__290__A
*612 ANTENNA__291__A
*613 ANTENNA__291__B
*614 ANTENNA__292__A
*615 ANTENNA__292__B
*616 ANTENNA__293__B
*617 ANTENNA__294__B
*618 ANTENNA__295__A
*619 ANTENNA__296__B
*620 ANTENNA__297__B
*621 ANTENNA__298__B
*622 ANTENNA__300__A
*623 ANTENNA__301__A
*624 ANTENNA__302__A
*625 ANTENNA__303__A
*626 ANTENNA__303__B
*627 ANTENNA__304__A
*628 ANTENNA__304__D
*629 ANTENNA__305__B
*630 ANTENNA__305__C
*631 ANTENNA__305__D
*632 ANTENNA__306__B
*633 ANTENNA__306__C
*634 ANTENNA__306__D
*635 ANTENNA__307__A
*636 ANTENNA__308__A1
*637 ANTENNA__308__A2
*638 ANTENNA__308__A3
*639 ANTENNA__308__A4
*640 ANTENNA__308__B1
*641 ANTENNA__311__A
*642 ANTENNA__311__D
*643 ANTENNA__312__A
*644 ANTENNA__312__B
*645 ANTENNA__312__C
*646 ANTENNA__312__D
*647 ANTENNA__313__A
*648 ANTENNA__313__B
*649 ANTENNA__313__C
*650 ANTENNA__313__D
*651 ANTENNA__314__A1
*652 ANTENNA__314__A2
*653 ANTENNA__314__A3
*654 ANTENNA__314__A4
*655 ANTENNA__314__B1
*656 ANTENNA__315__A
*657 ANTENNA__315__B
*658 ANTENNA__315__C
*659 ANTENNA__316__A
*660 ANTENNA__316__B
*661 ANTENNA__316__C
*662 ANTENNA__318__A
*663 ANTENNA__319__B
*664 ANTENNA__319__C
*665 ANTENNA__319__D
*666 ANTENNA__321__A
*667 ANTENNA__322__A
*668 ANTENNA__324__A
*669 ANTENNA__325__A
*670 ANTENNA__326__A
*671 ANTENNA__327__B1
*672 ANTENNA__328__A
*673 ANTENNA__329__A_N
*674 ANTENNA__330__A1
*675 ANTENNA__330__A2
*676 ANTENNA__330__B1
*677 ANTENNA__331__A
*678 ANTENNA__332__A0
*679 ANTENNA__332__A1
*680 ANTENNA__332__S
*681 ANTENNA__333__A
*682 ANTENNA__334__A
*683 ANTENNA__335__A
*684 ANTENNA__335__B
*685 ANTENNA__335__C
*686 ANTENNA__336__A1
*687 ANTENNA__336__A2
*688 ANTENNA__336__A3
*689 ANTENNA__336__B1
*690 ANTENNA__337__A
*691 ANTENNA__338__A
*692 ANTENNA__339__A
*693 ANTENNA__340__A2
*694 ANTENNA__340__B1
*695 ANTENNA__341__A
*696 ANTENNA__342__A
*697 ANTENNA__343__A1
*698 ANTENNA__343__S
*699 ANTENNA__344__A
*700 ANTENNA__345__A
*701 ANTENNA__346__A
*702 ANTENNA__346__B
*703 ANTENNA__346__C
*704 ANTENNA__347__A
*705 ANTENNA__347__B
*706 ANTENNA__347__C
*707 ANTENNA__348__A2
*708 ANTENNA__348__B1
*709 ANTENNA__349__A
*710 ANTENNA__350__A
*711 ANTENNA__351__A
*712 ANTENNA__352__A2
*713 ANTENNA__352__B1
*714 ANTENNA__353__A
*715 ANTENNA__354__A
*716 ANTENNA__355__A
*717 ANTENNA__355__B
*718 ANTENNA__356__A
*719 ANTENNA__356__B
*720 ANTENNA__357__A
*721 ANTENNA__358__A1
*722 ANTENNA__358__B1
*723 ANTENNA__359__A
*724 ANTENNA__359__B
*725 ANTENNA__360__A
*726 ANTENNA__360__B
*727 ANTENNA__360__C
*728 ANTENNA__361__A
*729 ANTENNA__361__B
*730 ANTENNA__361__C
*731 ANTENNA__362__B1
*732 ANTENNA__363__A
*733 ANTENNA__363__B
*734 ANTENNA__364__A
*735 ANTENNA__364__B
*736 ANTENNA__364__C
*737 ANTENNA__364__D
*738 ANTENNA__365__A
*739 ANTENNA__365__B
*740 ANTENNA__365__C
*741 ANTENNA__365__D
*742 ANTENNA__366__A
*743 ANTENNA__367__A2
*744 ANTENNA__367__B1
*745 ANTENNA__368__A
*746 ANTENNA__368__B
*747 ANTENNA__369__B
*748 ANTENNA__369__C
*749 ANTENNA__370__A
*750 ANTENNA__371__A
*751 ANTENNA__371__B
*752 ANTENNA__372__B
*753 ANTENNA__372__D
*754 ANTENNA__373__A
*755 ANTENNA__375__A
*756 ANTENNA__375__B
*757 ANTENNA__376__A
*758 ANTENNA__376__B
*759 ANTENNA__377__A
*760 ANTENNA__377__B
*761 ANTENNA__378__B
*762 ANTENNA__379__A
*763 ANTENNA__380__A
*764 ANTENNA__380__B
*765 ANTENNA__382__A
*766 ANTENNA__384__A
*767 ANTENNA__385__A
*768 ANTENNA__385__B
*769 ANTENNA__386__A
*770 ANTENNA__386__B
*771 ANTENNA__386__C
*772 ANTENNA__386__D
*773 ANTENNA__387__B
*774 ANTENNA__387__C
*775 ANTENNA__388__B
*776 ANTENNA__388__D
*777 ANTENNA__389__A
*778 ANTENNA__390__A1
*779 ANTENNA__390__A2
*780 ANTENNA__390__A3
*781 ANTENNA__390__A4
*782 ANTENNA__390__B1
*783 ANTENNA__393__A
*784 ANTENNA__393__B
*785 ANTENNA__393__C
*786 ANTENNA__393__D
*787 ANTENNA__394__A
*788 ANTENNA__394__B
*789 ANTENNA__394__C
*790 ANTENNA__394__D
*791 ANTENNA__395__A
*792 ANTENNA__395__B
*793 ANTENNA__395__D
*794 ANTENNA__396__A1
*795 ANTENNA__396__A2
*796 ANTENNA__396__A3
*797 ANTENNA__396__A4
*798 ANTENNA__396__B1
*799 ANTENNA__397__A
*800 ANTENNA__397__B
*801 ANTENNA__397__C
*802 ANTENNA__398__A
*803 ANTENNA__398__B
*804 ANTENNA__398__C
*805 ANTENNA__399__A
*806 ANTENNA__400__A_N
*807 ANTENNA__400__B
*808 ANTENNA__400__C
*809 ANTENNA__400__D
*810 ANTENNA__401__B
*811 ANTENNA__402__A
*812 ANTENNA__402__B
*813 ANTENNA__403__A
*814 ANTENNA__404__A
*815 ANTENNA__405__A
*816 ANTENNA__405__B
*817 ANTENNA__405__C
*818 ANTENNA__406__A
*819 ANTENNA__406__B
*820 ANTENNA__406__C
*821 ANTENNA__407__B1
*822 ANTENNA__408__A
*823 ANTENNA__408__B
*824 ANTENNA__409__A_N
*825 ANTENNA__410__A1
*826 ANTENNA__410__A2
*827 ANTENNA__410__B1
*828 ANTENNA__411__A
*829 ANTENNA__411__B
*830 ANTENNA__412__A0
*831 ANTENNA__412__A1
*832 ANTENNA__412__S
*833 ANTENNA__413__A
*834 ANTENNA__414__A
*835 ANTENNA__415__A
*836 ANTENNA__415__B
*837 ANTENNA__416__A1
*838 ANTENNA__416__A2
*839 ANTENNA__416__A3
*840 ANTENNA__416__B1
*841 ANTENNA__417__A
*842 ANTENNA__417__B
*843 ANTENNA__418__A
*844 ANTENNA__419__A
*845 ANTENNA__420__A2
*846 ANTENNA__420__B1
*847 ANTENNA__421__A
*848 ANTENNA__422__A1
*849 ANTENNA__422__S
*850 ANTENNA__423__A
*851 ANTENNA__424__A
*852 ANTENNA__425__A
*853 ANTENNA__425__B
*854 ANTENNA__425__C
*855 ANTENNA__426__A
*856 ANTENNA__426__B
*857 ANTENNA__426__C
*858 ANTENNA__427__A1
*859 ANTENNA__427__B1
*860 ANTENNA__429__A
*861 ANTENNA__430__A
*862 ANTENNA__431__A2
*863 ANTENNA__431__B1
*864 ANTENNA__432__A
*865 ANTENNA__433__A
*866 ANTENNA__434__A
*867 ANTENNA__434__B
*868 ANTENNA__435__A
*869 ANTENNA__435__B
*870 ANTENNA__436__B1
*871 ANTENNA__437__A
*872 ANTENNA__437__B
*873 ANTENNA__438__A
*874 ANTENNA__438__B
*875 ANTENNA__438__C
*876 ANTENNA__439__A
*877 ANTENNA__439__B
*878 ANTENNA__439__C
*879 ANTENNA__440__A1
*880 ANTENNA__440__B1
*881 ANTENNA__441__A
*882 ANTENNA__441__B
*883 ANTENNA__442__A
*884 ANTENNA__442__B
*885 ANTENNA__442__C
*886 ANTENNA__442__D
*887 ANTENNA__443__A
*888 ANTENNA__443__B
*889 ANTENNA__443__C
*890 ANTENNA__443__D
*891 ANTENNA__444__A2
*892 ANTENNA__444__B1
*893 ANTENNA__445__A
*894 ANTENNA__445__B
*895 ANTENNA__446__A_N
*896 ANTENNA__446__B
*897 ANTENNA__446__C
*898 ANTENNA__447__A
*899 ANTENNA__447__B
*900 ANTENNA__448__A
*901 ANTENNA__448__B
*902 ANTENNA__449__A_N
*903 ANTENNA__449__B
*904 ANTENNA__449__C
*905 ANTENNA__449__D
*906 ANTENNA__450__A
*907 ANTENNA__450__B
*908 ANTENNA__453__A
*909 ANTENNA__455__A
*910 ANTENNA__455__B
*911 ANTENNA__456__A
*912 ANTENNA__457__S
*913 ANTENNA__458__B
*914 ANTENNA__459__B
*915 ANTENNA__460__A
*916 ANTENNA__460__B
*917 ANTENNA__462__A
*918 ANTENNA__463__A
*919 ANTENNA__463__B
*920 ANTENNA__465__A
*921 ANTENNA__465__B
*922 ANTENNA__465__C
*923 ANTENNA__466__A
*924 ANTENNA__466__B
*925 ANTENNA__467__A
*926 ANTENNA__467__B
*927 ANTENNA__469__A
*928 ANTENNA__470__A
*929 ANTENNA__471__A
*930 ANTENNA__472__A
*931 ANTENNA__473__A
*932 ANTENNA__474__A
*933 ANTENNA__476__A
*934 ANTENNA__479__A
*935 ANTENNA__480__A
*936 ANTENNA__482__A
*937 ANTENNA__484__A
*938 ANTENNA__490__A
*939 ANTENNA__491__A
*940 ANTENNA__492__A
*941 ANTENNA__493__A
*942 ANTENNA__494__A
*943 ANTENNA__495__A
*944 ANTENNA__496__A
*945 ANTENNA__499__A
*946 ANTENNA__500__A
*947 ANTENNA__501__A
*948 ANTENNA__505__A
*949 ANTENNA__513__A
*950 ANTENNA__516__5_A
*951 ANTENNA__519__A
*952 ANTENNA__521__A
*953 ANTENNA__522__A
*954 ANTENNA__523__A
*955 ANTENNA__524__A
*956 ANTENNA__525__A
*957 ANTENNA__526__A
*958 ANTENNA__527__A
*959 ANTENNA__528__A
*960 ANTENNA__529__A
*961 ANTENNA__530__A
*962 ANTENNA__531__A
*963 ANTENNA__532__A
*964 ANTENNA__533__A
*965 ANTENNA__534__A
*966 ANTENNA__535__A
*967 ANTENNA__536__A
*968 ANTENNA__537__A
*969 ANTENNA__538__A
*970 ANTENNA__539__A
*971 ANTENNA__540__A
*972 ANTENNA__541__A
*973 ANTENNA__542__A
*974 ANTENNA__543__A
*975 ANTENNA__544__A
*976 ANTENNA__545__A
*977 ANTENNA__546__A
*978 ANTENNA__547__A
*979 ANTENNA__548__A
*980 ANTENNA__549__A
*981 ANTENNA__550__A
*982 ANTENNA__551__A
*983 ANTENNA__552__A
*984 ANTENNA__553__A
*985 ANTENNA__554__A
*986 ANTENNA__555__A
*987 ANTENNA__556__A
*988 ANTENNA__556__B
*989 ANTENNA__557__A
*990 ANTENNA__558__A
*991 ANTENNA__560__A
*992 ANTENNA__562__A
*993 ANTENNA__564__A
*994 ANTENNA__566__RESET_B
*995 ANTENNA__567__RESET_B
*996 ANTENNA__568__RESET_B
*997 ANTENNA__569__CLK
*998 ANTENNA__569__RESET_B
*999 ANTENNA__570__RESET_B
*1000 ANTENNA__571__CLK
*1001 ANTENNA__571__RESET_B
*1002 ANTENNA__572__CLK
*1003 ANTENNA__572__RESET_B
*1004 ANTENNA__573__CLK
*1005 ANTENNA__573__RESET_B
*1006 ANTENNA__574__CLK
*1007 ANTENNA__574__RESET_B
*1008 ANTENNA__575__CLK
*1009 ANTENNA__575__RESET_B
*1010 ANTENNA__576__CLK
*1011 ANTENNA__576__RESET_B
*1012 ANTENNA__577__CLK
*1013 ANTENNA__577__D
*1014 ANTENNA__577__RESET_B
*1015 ANTENNA__578__CLK
*1016 ANTENNA__578__RESET_B
*1017 ANTENNA__579__CLK
*1018 ANTENNA__580__CLK
*1019 ANTENNA__582__CLK
*1020 ANTENNA__584__CLK
*1021 ANTENNA__584__D
*1022 ANTENNA__586__CLK
*1023 ANTENNA__586__RESET_B
*1024 ANTENNA__587__CLK
*1025 ANTENNA__588__CLK
*1026 ANTENNA__588__RESET_B
*1027 ANTENNA__589__CLK
*1028 ANTENNA__589__RESET_B
*1029 ANTENNA__590__CLK
*1030 ANTENNA__590__D
*1031 ANTENNA__590__RESET_B
*1032 ANTENNA__591__CLK
*1033 ANTENNA__592__CLK
*1034 ANTENNA__593__CLK
*1035 ANTENNA__594__CLK
*1036 ANTENNA__596__CLK
*1037 ANTENNA__599__CLK
*1038 ANTENNA__599__RESET_B
*1039 ANTENNA__600__CLK
*1040 ANTENNA__600__SET_B
*1041 ANTENNA__601__CLK
*1042 ANTENNA__601__RESET_B
*1043 ANTENNA__602__CLK
*1044 ANTENNA__602__RESET_B
*1045 ANTENNA__603__CLK
*1046 ANTENNA__603__D
*1047 ANTENNA__603__RESET_B
*1048 ANTENNA__604__CLK
*1049 ANTENNA__604__RESET_B
*1050 ANTENNA__605__CLK
*1051 ANTENNA__605__RESET_B
*1052 ANTENNA__606__CLK
*1053 ANTENNA__606__RESET_B
*1054 ANTENNA__607__CLK
*1055 ANTENNA__607__RESET_B
*1056 ANTENNA__608__CLK
*1057 ANTENNA__608__RESET_B
*1058 ANTENNA__609__CLK
*1059 ANTENNA__609__D
*1060 ANTENNA__609__RESET_B
*1061 ANTENNA__610__CLK
*1062 ANTENNA__610__D
*1063 ANTENNA__610__RESET_B
*1064 ANTENNA__611__CLK
*1065 ANTENNA__611__RESET_B
*1066 ANTENNA__612__CLK
*1067 ANTENNA__612__RESET_B
*1068 ANTENNA__613__CLK
*1069 ANTENNA__613__RESET_B
*1070 ANTENNA__614__CLK
*1071 ANTENNA__614__RESET_B
*1072 ANTENNA__616__CLK
*1073 ANTENNA__617__D
*1074 ANTENNA__618__CLK
*1075 ANTENNA__620__CLK
*1076 ANTENNA__622__CLK
*1077 ANTENNA__623__CLK
*1078 ANTENNA__623__D
*1079 ANTENNA__624__CLK
*1080 ANTENNA__625__D
*1081 ANTENNA__626__CLK
*1082 ANTENNA__628__CLK
*1083 ANTENNA__630__CLK
*1084 ANTENNA__631__CLK
*1085 ANTENNA__631__D
*1086 ANTENNA__632__CLK
*1087 ANTENNA__635__CLK
*1088 ANTENNA__635__RESET_B
*1089 ANTENNA__636__CLK
*1090 ANTENNA__636__SET_B
*1091 ANTENNA__637__CLK
*1092 ANTENNA__637__D
*1093 ANTENNA__637__RESET_B
*1094 ANTENNA__638__CLK
*1095 ANTENNA__638__D
*1096 ANTENNA__638__RESET_B
*1097 ANTENNA__639__CLK
*1098 ANTENNA__639__D
*1099 ANTENNA__639__RESET_B
*1100 ANTENNA__640__CLK
*1101 ANTENNA__640__D
*1102 ANTENNA__640__RESET_B
*1103 ANTENNA__641__CLK
*1104 ANTENNA__641__RESET_B
*1105 ANTENNA__642__CLK
*1106 ANTENNA__642__D
*1107 ANTENNA__642__RESET_B
*1108 ANTENNA__643__CLK
*1109 ANTENNA__643__RESET_B
*1110 ANTENNA__644__CLK
*1111 ANTENNA__644__RESET_B
*1112 ANTENNA__645__CLK
*1113 ANTENNA__645__RESET_B
*1114 ANTENNA__646__CLK
*1115 ANTENNA__646__RESET_B
*1116 ANTENNA__647__CLK
*1117 ANTENNA__647__RESET_B
*1118 ANTENNA__648__CLK
*1119 ANTENNA__648__RESET_B
*1120 ANTENNA__649__CLK
*1121 ANTENNA__649__RESET_B
*1122 ANTENNA__650__CLK
*1123 ANTENNA__650__D
*1124 ANTENNA__650__RESET_B
*1125 ANTENNA__652__CLK
*1126 ANTENNA__654__CLK
*1127 ANTENNA__655__CLK
*1128 ANTENNA__656__CLK
*1129 ANTENNA__658__CLK
*1130 ANTENNA__659__A
*1131 ANTENNA__660__A
*1132 ANTENNA__661__A
*1133 ANTENNA__662__A
*1134 ANTENNA__663__A
*1135 ANTENNA__664__A
*1136 ANTENNA__665__A
*1137 ANTENNA__666__A
*1138 ANTENNA__667__A
*1139 ANTENNA__668__A
*1140 ANTENNA__669__A
*1141 ANTENNA__670__A
*1142 ANTENNA__671__A
*1143 ANTENNA__672__A
*1144 ANTENNA__674__A
*1145 ANTENNA__675__A
*1146 ANTENNA__681__A
*1147 ANTENNA__682__A
*1148 ANTENNA__683__A
*1149 ANTENNA_clkbuf_0_clk_master_A
*1150 ANTENNA_fb_block_I\.gs_f\.fb_gray_selector_loop\[0\]\.dl\.dlrtn_D
*1151 ANTENNA_fb_block_I\.gs_f\.fb_gray_selector_loop\[0\]\.dl\.dlrtn_GATE_N
*1152 ANTENNA_fb_block_I\.gs_f\.fb_gray_selector_loop\[0\]\.dl\.dlrtn_RESET_B
*1153 ANTENNA_fb_block_I\.gs_f\.fb_gray_selector_loop\[1\]\.dl\.dlrtn_D
*1154 ANTENNA_fb_block_I\.gs_f\.fb_gray_selector_loop\[1\]\.dl\.dlrtn_GATE_N
*1155 ANTENNA_fb_block_I\.gs_f\.fb_gray_selector_loop\[1\]\.dl\.dlrtn_RESET_B
*1156 ANTENNA_fb_block_I\.gs_f\.fb_gray_selector_loop\[1\]\.t_buf\.t_buf_A
*1157 ANTENNA_fb_block_I\.gs_f\.fb_gray_selector_loop\[2\]\.dl\.dlrtn_D
*1158 ANTENNA_fb_block_I\.gs_f\.fb_gray_selector_loop\[2\]\.dl\.dlrtn_GATE_N
*1159 ANTENNA_fb_block_I\.gs_f\.fb_gray_selector_loop\[2\]\.dl\.dlrtn_RESET_B
*1160 ANTENNA_fb_block_I\.gs_f\.fb_gray_selector_loop\[2\]\.t_buf\.t_buf_A
*1161 ANTENNA_fb_block_I\.gs_f\.fb_gray_selector_loop\[3\]\.dl\.dlrtn_D
*1162 ANTENNA_fb_block_I\.gs_f\.fb_gray_selector_loop\[3\]\.dl\.dlrtn_GATE_N