v {xschem version=2.9.9 file_version=1.2 }
G {}
K {}
V {}
S {}
E {}
N 960 -120 960 -100 { lab=pol}
N 600 -120 600 -80 { lab=pol}
N 600 -120 640 -120 { lab=pol}
N 960 -170 960 -120 { lab=pol}
N 960 -170 1070 -170 { lab=pol}
N 1080 -90 1080 -60 { lab=event}
N 1080 -130 1080 -90 { lab=event}
N 640 -120 960 -120 { lab=pol}
N 1070 -170 1080 -170 { lab=pol}
N 960 -100 960 -80 { lab=pol}
N 940 80 940 100 { lab=pol2}
N 580 80 580 120 { lab=pol2}
N 580 80 620 80 { lab=pol2}
N 940 30 940 80 { lab=pol2}
N 940 30 1050 30 { lab=pol2}
N 1060 110 1060 140 { lab=event2}
N 1060 70 1060 110 { lab=event2}
N 620 80 940 80 { lab=pol2}
N 1050 30 1060 30 { lab=pol2}
N 940 100 940 120 { lab=pol2}
C {devices/lab_pin.sym} 70 -520 0 0 {name=l220 sig_type=std_logic lab=inp}
C {devices/netlist.sym} 0 -270 0 0 {name=SPICE2 only_toplevel=false value="
.lib /home/sky/sky130A/libs.tech/ngspice/sky130.lib.spice tt
.include /home/sky/sky130A/libs.ref/sky130_fd_sc_lp/spice/sky130_fd_sc_lp.spice
.include /home/sky/sky130A/libs.ref/sky130_fd_pr/spice/sky130_fd_pr__pfet_01v8_lvt__tt_discrete.corner.spice
.options abstol=1e-14 reltol=1e-4
.param W=1.75
.param L=0.15
.tran 1n 0.5m
.save all
"}
C {devices/vsource.sym} 640 -430 0 0 {name=VDD1 value="DC 1.2"}
C {devices/gnd.sym} 640 -400 0 0 {name=l93 lab=GND}
C {devices/vdd.sym} 640 -460 0 0 {name=l94 lab=VDD}
C {devices/vsource.sym} 790 -300 0 0 {name=Vfclk5 value=PULSE(0,1.2,0,1n,1n,180n,400n)}
C {devices/gnd.sym} 790 -270 0 0 {name=l95 lab=GND}
C {devices/lab_pin.sym} 790 -330 0 0 {name=l114 sig_type=std_logic lab=phi1}
C {devices/vsource.sym} 790 -400 0 0 {name=Vfclk2 value=PULSE(1.2,0,0,1n,1n,180n,400n)}
C {devices/gnd.sym} 790 -370 0 0 {name=l117 lab=GND}
C {devices/lab_pin.sym} 790 -430 0 0 {name=l118 sig_type=std_logic lab=phi1b}
C {devices/vsource.sym} 70 -490 0 0 {name=Vinp2 value="DC 0.4 AM(0.01,0.4,1000,10000,0,0)"}
C {devices/gnd.sym} 70 -340 0 0 {name=l22 lab=GND}
C {devices/lab_pin.sym} 310 -520 0 0 {name=l11 sig_type=std_logic lab=inm}
C {devices/vsource.sym} 310 -490 0 0 {name=Vinp1 value="DC 0.4 AM(-0.01,0.4,1000,10000,0,0)"}
C {devices/gnd.sym} 310 -340 0 0 {name=l14 lab=GND}
C {tryandtest/comparator_single_tail.sym} 450 -300 0 0 {name=X17 Wplus=W Lplus=L Wminus=W Lminus=L}
C {devices/lab_pin.sym} 470 -380 0 0 {name=l1 sig_type=std_logic lab=inp}
C {devices/lab_pin.sym} 470 -340 0 0 {name=l2 sig_type=std_logic lab=inm}
C {devices/lab_pin.sym} 530 -410 0 0 {name=l3 sig_type=std_logic lab=phi1}
C {devices/lab_pin.sym} 530 -310 0 0 {name=l4 sig_type=std_logic lab=phi1b}
C {devices/lab_pin.sym} 560 -370 0 1 {name=l5 sig_type=std_logic lab=high}
C {devices/lab_pin.sym} 560 -350 0 1 {name=l6 sig_type=std_logic lab=low}
C {devices/vsource.sym} 70 -430 0 0 {name=Vinp3 value=SFFM(0,0.01,10000,100,100,0,0)}
C {devices/vsource.sym} 310 -430 0 0 {name=VDD4 value=SFFM(0,-0.01,10000,100,100,0,0)}
C {devices/vsource.sym} 310 -370 0 0 {name=VDD2 value="DC 0.8"}
C {devices/vsource.sym} 70 -370 0 0 {name=VDD3 value="DC 0.8"}
C {tryandtest/comparator_type_2.sym} 570 -230 0 0 {name=X2 Wplus=0.42 Lplus=0.15 Wminus=0.42 Lminus=0.15}
C {devices/lab_pin.sym} 650 -340 0 1 {name=l7 sig_type=std_logic lab=phi1}
C {devices/lab_pin.sym} 680 -300 0 1 {name=l8 sig_type=std_logic lab=high2}
C {devices/lab_pin.sym} 680 -280 0 1 {name=l9 sig_type=std_logic lab=low2}
C {devices/lab_pin.sym} 590 -310 0 0 {name=l10 sig_type=std_logic lab=inp}
C {devices/lab_pin.sym} 590 -270 0 0 {name=l12 sig_type=std_logic lab=inm}
C {devices/lab_pin.sym} 1080 -60 0 1 {name=l13 sig_type=std_logic lab=event}
C {sky130_stdcells/xor2_1.sym} 1020 -60 2 1 {name=x1 VGND=GND VNB=GND VPB=VDD VPWR=VDD prefix=sky130_fd_sc_lp__ }
C {devices/lab_pin.sym} 240 -100 3 0 {name=l15 sig_type=std_logic lab=phi1b}
C {sky130_stdcells/dfxtp_1.sym} 690 -70 2 1 {name=x11 VGND=gnd VNB=gnd VPB=vdd VPWR=vdd prefix=sky130_fd_sc_lp__ }
C {devices/lab_pin.sym} 600 -60 3 0 {name=l16 sig_type=std_logic lab=phi1}
C {sky130_stdcells/dfxtp_1.sym} 870 -50 2 1 {name=x12 VGND=gnd VNB=gnd VPB=vdd VPWR=vdd prefix=sky130_fd_sc_lp__ }
C {devices/lab_pin.sym} 780 -40 3 0 {name=l17 sig_type=std_logic lab=phi1}
C {sky130_stdcells/dfxtp_1.sym} 330 -110 2 1 {name=x10 VGND=gnd VNB=gnd VPB=vdd VPWR=vdd prefix=sky130_fd_sc_lp__ }
C {sky130_stdcells/dfxtp_1.sym} 510 -90 2 1 {name=x13 VGND=gnd VNB=gnd VPB=vdd VPWR=vdd prefix=sky130_fd_sc_lp__ }
C {devices/lab_pin.sym} 420 -80 3 0 {name=l18 sig_type=std_logic lab=phi1}
C {sky130_stdcells/and2_0.sym} 1140 -150 2 1 {name=x14 VGND=GND VNB=GND VPB=VDD VPWR=VDD prefix=sky130_fd_sc_lp__ }
C {devices/lab_pin.sym} 1200 -150 0 1 {name=l19 sig_type=std_logic lab=polxevent}
C {devices/lab_pin.sym} 710 -120 3 1 {name=l20 sig_type=std_logic lab=pol}
C {devices/lab_pin.sym} 420 -100 3 1 {name=l21 sig_type=std_logic lab=latch}
C {devices/lab_pin.sym} 240 -120 2 1 {name=l23 sig_type=std_logic lab=high}
C {devices/lab_pin.sym} 1060 140 0 1 {name=l24 sig_type=std_logic lab=event2}
C {sky130_stdcells/xor2_1.sym} 1000 140 2 1 {name=x2 VGND=GND VNB=GND VPB=VDD VPWR=VDD prefix=sky130_fd_sc_lp__ }
C {devices/lab_pin.sym} 220 100 3 0 {name=l25 sig_type=std_logic lab=phi1b}
C {sky130_stdcells/dfxtp_1.sym} 670 130 2 1 {name=x3 VGND=gnd VNB=gnd VPB=vdd VPWR=vdd prefix=sky130_fd_sc_lp__ }
C {devices/lab_pin.sym} 580 140 3 0 {name=l26 sig_type=std_logic lab=phi1}
C {sky130_stdcells/dfxtp_1.sym} 850 150 2 1 {name=x4 VGND=gnd VNB=gnd VPB=vdd VPWR=vdd prefix=sky130_fd_sc_lp__ }
C {devices/lab_pin.sym} 760 160 3 0 {name=l27 sig_type=std_logic lab=phi1}
C {sky130_stdcells/dfxtp_1.sym} 310 90 2 1 {name=x5 VGND=gnd VNB=gnd VPB=vdd VPWR=vdd prefix=sky130_fd_sc_lp__ }
C {sky130_stdcells/dfxtp_1.sym} 490 110 2 1 {name=x6 VGND=gnd VNB=gnd VPB=vdd VPWR=vdd prefix=sky130_fd_sc_lp__ }
C {devices/lab_pin.sym} 400 120 3 0 {name=l28 sig_type=std_logic lab=phi1}
C {sky130_stdcells/and2_0.sym} 1120 50 2 1 {name=x7 VGND=GND VNB=GND VPB=VDD VPWR=VDD prefix=sky130_fd_sc_lp__ }
C {devices/lab_pin.sym} 1180 50 0 1 {name=l29 sig_type=std_logic lab=polxevent2}
C {devices/lab_pin.sym} 690 80 3 1 {name=l30 sig_type=std_logic lab=pol2}
C {devices/lab_pin.sym} 400 100 3 1 {name=l31 sig_type=std_logic lab=latch2}
C {devices/lab_pin.sym} 220 80 2 1 {name=l32 sig_type=std_logic lab=high2}
